70678541
  -OEChem-04182609202D

209217  0     1  0  0  0  0  0999 V2000
    7.2438    1.8817    0.0000 Co  0  0  0  0  0  0  0  0  0  0  0  0
    4.8914   -5.9248    0.0000 P   0  0  3  0  0  0  0  0  0  0  0  0
    9.5002    2.9905    0.0000 O   0  0  0  0  0  0  0  0  0  0  0  0
    8.3573    0.6690    0.0000 O   0  0  0  0  0  0  0  0  0  0  0  0
   10.8674    1.0122    0.0000 O   0  0  0  0  0  0  0  0  0  0  0  0
    8.6082   -4.7945    0.0000 O   0  0  0  0  0  0  0  0  0  0  0  0
    3.2166    2.6458    0.0000 O   0  0  0  0  0  0  0  0  0  0  0  0
    3.8026    1.8720    0.0000 O   0  0  0  0  0  0  0  0  0  0  0  0
    7.9632    5.8987    0.0000 O   0  0  0  0  0  0  0  0  0  0  0  0
    6.1602   -4.3119    0.0000 O   0  0  0  0  0  0  0  0  0  0  0  0
    5.3168   -3.1586    0.0000 O   0  0  0  0  0  0  0  0  0  0  0  0
    5.2258    6.9665    0.0000 O   0  0  0  0  0  0  0  0  0  0  0  0
    6.3500   -5.9238    0.0000 O   0  0  0  0  0  0  0  0  0  0  0  0
    6.4772   -1.2516    0.0000 O   0  0  0  0  0  0  0  0  0  0  0  0
   12.2363    4.3613    0.0000 O   0  0  0  0  0  0  0  0  0  0  0  0
    9.3326   -6.7191    0.0000 O   0  0  0  0  0  0  0  0  0  0  0  0
    4.1460   -5.3482    0.0000 O   0  0  0  0  0  0  0  0  0  0  0  0
    4.3345   -6.7554    0.0000 O   0  5  0  0  0  0  0  0  0  0  0  0
    4.8244   -6.9225    0.0000 O   0  0  0  0  0  0  0  0  0  0  0  0
    6.3511    2.7265    0.0000 N   0  0  0  0  0  0  0  0  0  0  0  0
    6.2696    0.9555    0.0000 N   0  5  0  0  0  0  0  0  0  0  0  0
    8.1233    2.8092    0.0000 N   0  0  0  0  0  0  0  0  0  0  0  0
    8.0613    1.0577    0.0000 N   0  0  0  0  0  0  0  0  0  0  0  0
    8.3603   -1.6098    0.0000 N   0  0  0  0  0  0  0  0  0  0  0  0
    8.3532   -3.1346    0.0000 N   0  0  0  0  0  0  0  0  0  0  0  0
   11.2532    2.6703    0.0000 N   0  0  0  0  0  0  0  0  0  0  0  0
    2.5760    4.2550    0.0000 N   0  0  0  0  0  0  0  0  0  0  0  0
    2.4374    0.8060    0.0000 N   0  0  0  0  0  0  0  0  0  0  0  0
    9.5513    6.5900    0.0000 N   0  0  0  0  0  0  0  0  0  0  0  0
    3.6538   -2.9040    0.0000 N   0  0  0  0  0  0  0  0  0  0  0  0
    3.5149    6.6972    0.0000 N   0  0  0  0  0  0  0  0  0  0  0  0
    6.4772   -2.3987    0.0000 N   0  0  0  0  0  0  0  0  0  0  0  0
   11.7086    6.0111    0.0000 N   0  0  0  0  0  0  0  0  0  0  0  0
   12.5756    3.5876    0.0000 N   0  0  0  0  0  0  0  0  0  0  0  0
   12.1256    1.0699    0.0000 N   0  0  0  0  0  0  0  0  0  0  0  0
   13.8517    1.2133    0.0000 N   0  0  0  0  0  0  0  0  0  0  0  0
   14.5907    2.7798    0.0000 N   0  0  0  0  0  0  0  0  0  0  0  0
    5.4857    2.6028    0.0000 C   0  0  1  0  0  0  0  0  0  0  0  0
    5.4455    1.0381    0.0000 C   0  0  1  0  0  0  0  0  0  0  0  0
    7.7340    2.7534    0.0000 C   0  5  0  0  0  0  0  0  0  0  0  0
    5.0748    3.3854    0.0000 C   0  0  2  0  0  0  0  0  0  0  0  0
    6.4544    3.6128    0.0000 C   0  0  0  0  0  0  0  0  0  0  0  0
    6.4141    0.1108    0.0000 C   0  0  0  0  0  0  0  0  0  0  0  0
    5.0334    0.2957    0.0000 C   0  0  1  0  0  0  0  0  0  0  0  0
    5.6510   -0.3219    0.0000 C   0  0  1  0  0  0  0  0  0  0  0  0
    5.6923    4.0030    0.0000 C   0  0  1  0  0  0  0  0  0  0  0  0
    7.9994    3.6334    0.0000 C   0  0  0  0  0  0  0  0  0  0  0  0
    7.9581    0.1304    0.0000 C   0  0  0  0  0  0  0  0  0  0  0  0
    8.9474    1.1610    0.0000 C   0  0  0  0  0  0  0  0  0  0  0  0
    8.9474    2.6853    0.0000 C   0  0  0  0  0  0  0  0  0  0  0  0
    8.6775    2.4220    0.0000 C   0  0  2  0  0  0  0  0  0  0  0  0
    4.5118    2.3758    0.0000 C   0  0  0  0  0  0  0  0  0  0  0  0
    7.2372    4.0238    0.0000 C   0  0  0  0  0  0  0  0  0  0  0  0
    7.1753   -0.2806    0.0000 C   0  0  0  0  0  0  0  0  0  0  0  0
    8.7615    4.0649    0.0000 C   0  0  2  0  0  0  0  0  0  0  0  0
    9.3583    0.3782    0.0000 C   0  0  0  0  0  0  0  0  0  0  0  0
    8.7408   -0.2393    0.0000 C   0  0  2  0  0  0  0  0  0  0  0  0
    9.3789    3.4474    0.0000 C   0  0  2  0  0  0  0  0  0  0  0  0
    9.3790    1.9232    0.0000 C   0  0  0  0  0  0  0  0  0  0  0  0
    9.2551   -1.9052    0.0000 C   0  0  0  0  0  0  0  0  0  0  0  0
    7.8028   -2.3696    0.0000 C   0  0  0  0  0  0  0  0  0  0  0  0
    4.2900    4.0051    0.0000 C   0  0  0  0  0  0  0  0  0  0  0  0
    4.2429    2.8305    0.0000 C   0  0  0  0  0  0  0  0  0  0  0  0
    4.0432    0.1568    0.0000 C   0  0  0  0  0  0  0  0  0  0  0  0
    5.5244   -1.2557    0.0000 C   0  0  0  0  0  0  0  0  0  0  0  0
    5.5368    4.9909    0.0000 C   0  0  0  0  0  0  0  0  0  0  0  0
    4.7034   -0.6415    0.0000 C   0  0  0  0  0  0  0  0  0  0  0  0
    8.9640    1.4639    0.0000 C   0  0  2  0  0  0  0  0  0  0  0  0
    9.2508   -2.8475    0.0000 C   0  0  0  0  0  0  0  0  0  0  0  0
    7.1871    5.0225    0.0000 C   0  0  0  0  0  0  0  0  0  0  0  0
    9.3559    4.8690    0.0000 C   0  0  0  0  0  0  0  0  0  0  0  0
    7.1352   -1.2798    0.0000 C   0  0  0  0  0  0  0  0  0  0  0  0
    8.9996   -1.2052    0.0000 C   0  0  0  0  0  0  0  0  0  0  0  0
   10.3314    3.7520    0.0000 C   0  0  0  0  0  0  0  0  0  0  0  0
    8.1804    4.8788    0.0000 C   0  0  0  0  0  0  0  0  0  0  0  0
   10.3573    0.3320    0.0000 C   0  0  0  0  0  0  0  0  0  0  0  0
   10.0697   -0.3245    0.0000 C   0  0  0  0  0  0  0  0  0  0  0  0
   10.0733   -1.4378    0.0000 C   0  0  0  0  0  0  0  0  0  0  0  0
    9.9637    1.4403    0.0000 C   0  0  2  0  0  0  0  0  0  0  0  0
   10.2951    2.3838    0.0000 C   0  0  1  0  0  0  0  0  0  0  0  0
    3.3609    3.6353    0.0000 C   0  0  0  0  0  0  0  0  0  0  0  0
    4.6524   -1.6130    0.0000 C   0  0  0  0  0  0  0  0  0  0  0  0
    4.6036    5.3501    0.0000 C   0  0  0  0  0  0  0  0  0  0  0  0
    3.4277    0.9449    0.0000 C   0  0  0  0  0  0  0  0  0  0  0  0
    8.0579   -4.0295    0.0000 C   0  0  2  0  0  0  0  0  0  0  0  0
   10.0647   -3.3225    0.0000 C   0  0  0  0  0  0  0  0  0  0  0  0
    8.2925   -1.9123    0.0000 C   0  0  0  0  0  0  0  0  0  0  0  0
   10.5438    4.7292    0.0000 C   0  0  0  0  0  0  0  0  0  0  0  0
    8.9568    5.7859    0.0000 C   0  0  0  0  0  0  0  0  0  0  0  0
   10.8873   -1.9127    0.0000 C   0  0  0  0  0  0  0  0  0  0  0  0
   10.8829   -2.8551    0.0000 C   0  0  0  0  0  0  0  0  0  0  0  0
    7.1602   -4.3166    0.0000 C   0  0  1  0  0  0  0  0  0  0  0  0
    4.5258   -2.5468    0.0000 C   0  0  0  0  0  0  0  0  0  0  0  0
    4.4481    6.3380    0.0000 C   0  0  0  0  0  0  0  0  0  0  0  0
    7.1559   -5.2589    0.0000 C   0  0  1  0  0  0  0  0  0  0  0  0
    7.2963   -1.8252    0.0000 C   0  0  0  0  0  0  0  0  0  0  0  0
   11.4962    5.0339    0.0000 C   0  0  0  0  0  0  0  0  0  0  0  0
   11.7556   -1.4167    0.0000 C   0  0  0  0  0  0  0  0  0  0  0  0
    8.0508   -5.5543    0.0000 C   0  0  1  0  0  0  0  0  0  0  0  0
   11.7466   -3.3591    0.0000 C   0  0  0  0  0  0  0  0  0  0  0  0
   12.0429    2.0665    0.0000 C   0  0  0  0  0  0  0  0  0  0  0  0
   11.5818    3.6085    0.0000 C   0  0  0  0  0  0  0  0  0  0  0  0
    8.3554   -6.5068    0.0000 C   0  0  0  0  0  0  0  0  0  0  0  0
   12.8646    2.6364    0.0000 C   0  0  0  0  0  0  0  0  0  0  0  0
    3.5272   -3.8379    0.0000 C   0  0  0  0  0  0  0  0  0  0  0  0
    4.2726   -4.4144    0.0000 C   0  0  1  0  0  0  0  0  0  0  0  0
   13.7690    2.2098    0.0000 C   0  0  0  0  0  0  0  0  0  0  0  0
   13.0301    0.6433    0.0000 C   0  0  0  0  0  0  0  0  0  0  0  0
    5.0683   -3.8087    0.0000 C   0  0  0  0  0  0  0  0  0  0  0  0
    4.6254    1.2617    0.0000 H   0  0  0  0  0  0  0  0  0  0  0  0
    7.1141    2.7463    0.0000 H   0  0  0  0  0  0  0  0  0  0  0  0
    7.4180    3.2868    0.0000 H   0  0  0  0  0  0  0  0  0  0  0  0
    4.6825    0.8067    0.0000 H   0  0  0  0  0  0  0  0  0  0  0  0
    6.1944    4.3667    0.0000 H   0  0  0  0  0  0  0  0  0  0  0  0
    8.5950    3.0365    0.0000 H   0  0  0  0  0  0  0  0  0  0  0  0
    4.3711    2.9797    0.0000 H   0  0  0  0  0  0  0  0  0  0  0  0
    3.9080    2.2352    0.0000 H   0  0  0  0  0  0  0  0  0  0  0  0
    4.6525    1.7720    0.0000 H   0  0  0  0  0  0  0  0  0  0  0  0
    8.2649   -0.6366    0.0000 H   0  0  0  0  0  0  0  0  0  0  0  0
    9.7700    2.9663    0.0000 H   0  0  0  0  0  0  0  0  0  0  0  0
    9.9990    1.9180    0.0000 H   0  0  0  0  0  0  0  0  0  0  0  0
    7.1829   -2.3668    0.0000 H   0  0  0  0  0  0  0  0  0  0  0  0
    4.7529    4.4176    0.0000 H   0  0  0  0  0  0  0  0  0  0  0  0
    3.9641    4.5326    0.0000 H   0  0  0  0  0  0  0  0  0  0  0  0
    3.8988    3.3463    0.0000 H   0  0  0  0  0  0  0  0  0  0  0  0
    3.7271    2.4865    0.0000 H   0  0  0  0  0  0  0  0  0  0  0  0
    4.5869    2.3147    0.0000 H   0  0  0  0  0  0  0  0  0  0  0  0
    3.4956   -0.1342    0.0000 H   0  0  0  0  0  0  0  0  0  0  0  0
    4.2346   -0.4330    0.0000 H   0  0  0  0  0  0  0  0  0  0  0  0
    5.6562   -1.8615    0.0000 H   0  0  0  0  0  0  0  0  0  0  0  0
    6.1439   -1.2310    0.0000 H   0  0  0  0  0  0  0  0  0  0  0  0
    6.1567    4.9794    0.0000 H   0  0  0  0  0  0  0  0  0  0  0  0
    5.6557    5.5994    0.0000 H   0  0  0  0  0  0  0  0  0  0  0  0
    4.5052   -0.0540    0.0000 H   0  0  0  0  0  0  0  0  0  0  0  0
    4.1160   -0.8397    0.0000 H   0  0  0  0  0  0  0  0  0  0  0  0
    4.9016   -1.2290    0.0000 H   0  0  0  0  0  0  0  0  0  0  0  0
    8.3541    1.5753    0.0000 H   0  0  0  0  0  0  0  0  0  0  0  0
    7.8063    5.0536    0.0000 H   0  0  0  0  0  0  0  0  0  0  0  0
    7.1560    5.6417    0.0000 H   0  0  0  0  0  0  0  0  0  0  0  0
    6.5679    4.9915    0.0000 H   0  0  0  0  0  0  0  0  0  0  0  0
    9.7829    4.4195    0.0000 H   0  0  0  0  0  0  0  0  0  0  0  0
    9.8728    5.2115    0.0000 H   0  0  0  0  0  0  0  0  0  0  0  0
    6.5157   -1.2550    0.0000 H   0  0  0  0  0  0  0  0  0  0  0  0
    7.1104   -1.8993    0.0000 H   0  0  0  0  0  0  0  0  0  0  0  0
    7.7548   -1.3046    0.0000 H   0  0  0  0  0  0  0  0  0  0  0  0
    9.3553   -1.7131    0.0000 H   0  0  0  0  0  0  0  0  0  0  0  0
    9.5615   -0.9432    0.0000 H   0  0  0  0  0  0  0  0  0  0  0  0
   10.4148    3.1377    0.0000 H   0  0  0  0  0  0  0  0  0  0  0  0
   10.9509    3.7276    0.0000 H   0  0  0  0  0  0  0  0  0  0  0  0
    8.6850    5.2390    0.0000 H   0  0  0  0  0  0  0  0  0  0  0  0
    7.8202    5.3834    0.0000 H   0  0  0  0  0  0  0  0  0  0  0  0
    7.6758    4.5185    0.0000 H   0  0  0  0  0  0  0  0  0  0  0  0
   10.3286   -0.2873    0.0000 H   0  0  0  0  0  0  0  0  0  0  0  0
   10.9766    0.3033    0.0000 H   0  0  0  0  0  0  0  0  0  0  0  0
   10.3859    0.9513    0.0000 H   0  0  0  0  0  0  0  0  0  0  0  0
    9.6340   -0.7656    0.0000 H   0  0  0  0  0  0  0  0  0  0  0  0
   10.5108   -0.7603    0.0000 H   0  0  0  0  0  0  0  0  0  0  0  0
   10.5055    0.1165    0.0000 H   0  0  0  0  0  0  0  0  0  0  0  0
   10.0762   -0.8178    0.0000 H   0  0  0  0  0  0  0  0  0  0  0  0
    9.8206    0.8371    0.0000 H   0  0  0  0  0  0  0  0  0  0  0  0
   10.7230    1.9352    0.0000 H   0  0  0  0  0  0  0  0  0  0  0  0
    4.5205   -1.0071    0.0000 H   0  0  0  0  0  0  0  0  0  0  0  0
    4.0329   -1.6376    0.0000 H   0  0  0  0  0  0  0  0  0  0  0  0
    3.9837    5.3615    0.0000 H   0  0  0  0  0  0  0  0  0  0  0  0
    4.4847    4.7416    0.0000 H   0  0  0  0  0  0  0  0  0  0  0  0
    8.8980   -3.9004    0.0000 H   0  0  0  0  0  0  0  0  0  0  0  0
   10.0618   -3.9425    0.0000 H   0  0  0  0  0  0  0  0  0  0  0  0
    8.0975   -2.5008    0.0000 H   0  0  0  0  0  0  0  0  0  0  0  0
    8.8202   -2.2378    0.0000 H   0  0  0  0  0  0  0  0  0  0  0  0
   10.4603    5.3436    0.0000 H   0  0  0  0  0  0  0  0  0  0  0  0
    9.9243    4.7537    0.0000 H   0  0  0  0  0  0  0  0  0  0  0  0
    7.7381    0.6403    0.0000 H   0  0  0  0  0  0  0  0  0  0  0  0
    6.9714   -3.7260    0.0000 H   0  0  0  0  0  0  0  0  0  0  0  0
   11.3774    1.3648    0.0000 H   0  0  0  0  0  0  0  0  0  0  0  0
    2.0000    4.0258    0.0000 H   0  0  0  0  0  0  0  0  0  0  0  0
    2.6655    4.8686    0.0000 H   0  0  0  0  0  0  0  0  0  0  0  0
    2.2050    0.2312    0.0000 H   0  0  0  0  0  0  0  0  0  0  0  0
    2.0558    1.2947    0.0000 H   0  0  0  0  0  0  0  0  0  0  0  0
    7.3127   -6.0944    0.0000 H   0  0  0  0  0  0  0  0  0  0  0  0
   12.0631   -1.9551    0.0000 H   0  0  0  0  0  0  0  0  0  0  0  0
   12.2939   -1.1092    0.0000 H   0  0  0  0  0  0  0  0  0  0  0  0
   11.4480   -0.8783    0.0000 H   0  0  0  0  0  0  0  0  0  0  0  0
    8.6627   -5.6541    0.0000 H   0  0  0  0  0  0  0  0  0  0  0  0
    9.3038    7.1585    0.0000 H   0  0  0  0  0  0  0  0  0  0  0  0
   10.1673    6.5201    0.0000 H   0  0  0  0  0  0  0  0  0  0  0  0
   11.4342   -3.8946    0.0000 H   0  0  0  0  0  0  0  0  0  0  0  0
   12.2821   -3.6715    0.0000 H   0  0  0  0  0  0  0  0  0  0  0  0
   12.0591   -2.8236    0.0000 H   0  0  0  0  0  0  0  0  0  0  0  0
   11.2284    4.1179    0.0000 H   0  0  0  0  0  0  0  0  0  0  0  0
    3.1634   -2.5247    0.0000 H   0  0  0  0  0  0  0  0  0  0  0  0
    3.4184    7.3097    0.0000 H   0  0  0  0  0  0  0  0  0  0  0  0
    3.0326    6.3075    0.0000 H   0  0  0  0  0  0  0  0  0  0  0  0
    5.8478   -4.8474    0.0000 H   0  0  0  0  0  0  0  0  0  0  0  0
    7.7411   -6.5902    0.0000 H   0  0  0  0  0  0  0  0  0  0  0  0
    8.3310   -7.1263    0.0000 H   0  0  0  0  0  0  0  0  0  0  0  0
    6.5313   -3.0164    0.0000 H   0  0  0  0  0  0  0  0  0  0  0  0
    5.9153   -2.1366    0.0000 H   0  0  0  0  0  0  0  0  0  0  0  0
   12.2992    6.1999    0.0000 H   0  0  0  0  0  0  0  0  0  0  0  0
   11.2498    6.4280    0.0000 H   0  0  0  0  0  0  0  0  0  0  0  0
    2.9366   -3.6492    0.0000 H   0  0  0  0  0  0  0  0  0  0  0  0
    3.2388   -4.3867    0.0000 H   0  0  0  0  0  0  0  0  0  0  0  0
    4.8876   -4.3358    0.0000 H   0  0  0  0  0  0  0  0  0  0  0  0
    9.5215   -7.3097    0.0000 H   0  0  0  0  0  0  0  0  0  0  0  0
   13.0814    0.0254    0.0000 H   0  0  0  0  0  0  0  0  0  0  0  0
    5.4438   -4.3020    0.0000 H   0  0  0  0  0  0  0  0  0  0  0  0
    5.5616   -3.4332    0.0000 H   0  0  0  0  0  0  0  0  0  0  0  0
    4.6928   -3.3154    0.0000 H   0  0  0  0  0  0  0  0  0  0  0  0
   15.1514    2.5153    0.0000 H   0  0  0  0  0  0  0  0  0  0  0  0
   14.5394    3.3977    0.0000 H   0  0  0  0  0  0  0  0  0  0  0  0
  2 13  1  0  0  0  0
  2 17  1  0  0  0  0
  2 18  1  0  0  0  0
  2 19  2  0  0  0  0
  3 51  1  0  0  0  0
  3 80  1  0  0  0  0
 68  4  1  6  0  0  0
  4172  1  0  0  0  0
 79  5  1  6  0  0  0
  5174  1  0  0  0  0
  6 85  1  0  0  0  0
  6 99  1  0  0  0  0
  7 81  2  0  0  0  0
  8 84  2  0  0  0  0
  9 89  2  0  0  0  0
 92 10  1  1  0  0  0
 10193  1  0  0  0  0
 11 93  2  0  0  0  0
 12 94  2  0  0  0  0
 13 95  1  0  0  0  0
 14 96  2  0  0  0  0
 15 97  2  0  0  0  0
 16103  1  0  0  0  0
 16203  1  0  0  0  0
 17106  1  0  0  0  0
 20 38  1  0  0  0  0
 20 42  2  0  0  0  0
 21 39  1  0  0  0  0
 21 43  1  0  0  0  0
 22 47  1  0  0  0  0
 22 50  2  0  0  0  0
 23 48  2  0  0  0  0
 23 49  1  0  0  0  0
 24 60  1  0  0  0  0
 24 61  2  0  0  0  0
 25 61  1  0  0  0  0
 25 69  1  0  0  0  0
 25 85  1  0  0  0  0
 80 26  1  1  0  0  0
 26101  1  0  0  0  0
 26102  1  0  0  0  0
 27 81  1  0  0  0  0
 27175  1  0  0  0  0
 27176  1  0  0  0  0
 28 84  1  0  0  0  0
 28177  1  0  0  0  0
 28178  1  0  0  0  0
 29 89  1  0  0  0  0
 29184  1  0  0  0  0
 29185  1  0  0  0  0
 30 93  1  0  0  0  0
 30105  1  0  0  0  0
 30190  1  0  0  0  0
 31 94  1  0  0  0  0
 31191  1  0  0  0  0
 31192  1  0  0  0  0
 32 96  1  0  0  0  0
 32196  1  0  0  0  0
 32197  1  0  0  0  0
 33 97  1  0  0  0  0
 33198  1  0  0  0  0
 33199  1  0  0  0  0
 34102  2  0  0  0  0
 34104  1  0  0  0  0
 35101  2  0  0  0  0
 35108  1  0  0  0  0
 36107  1  0  0  0  0
 36108  2  0  0  0  0
 37107  1  0  0  0  0
 37208  1  0  0  0  0
 37209  1  0  0  0  0
 38 39  1  0  0  0  0
 38 41  1  0  0  0  0
 38 52  1  6  0  0  0
 39 44  1  0  0  0  0
 39110  1  1  0  0  0
 51 40  1  1  0  0  0
 40111  1  0  0  0  0
 40112  1  0  0  0  0
 41 46  1  0  0  0  0
 41 62  1  0  0  0  0
 41 63  1  6  0  0  0
 42 46  1  0  0  0  0
 42 53  1  0  0  0  0
 43 45  1  0  0  0  0
 43 54  2  0  0  0  0
 44 45  1  0  0  0  0
 44 64  1  1  0  0  0
 44113  1  0  0  0  0
 45 65  1  0  0  0  0
 45 67  1  1  0  0  0
 46 66  1  6  0  0  0
 46114  1  0  0  0  0
 47 53  2  0  0  0  0
 47 55  1  0  0  0  0
 48 54  1  0  0  0  0
 48 57  1  0  0  0  0
 49 56  1  0  0  0  0
 49 59  2  0  0  0  0
 50 58  1  0  0  0  0
 50 59  1  0  0  0  0
 51 68  1  0  0  0  0
 51115  1  0  0  0  0
 52116  1  0  0  0  0
 52117  1  0  0  0  0
 52118  1  0  0  0  0
 53 70  1  0  0  0  0
 54 72  1  0  0  0  0
 55 58  1  0  0  0  0
 55 71  1  0  0  0  0
 55 75  1  6  0  0  0
 56 57  1  0  0  0  0
 56 76  1  0  0  0  0
 56 77  1  0  0  0  0
 57 73  1  6  0  0  0
 57119  1  0  0  0  0
 58 74  1  6  0  0  0
 58120  1  0  0  0  0
 59121  1  0  0  0  0
 60 69  2  0  0  0  0
 60 78  1  0  0  0  0
 61122  1  0  0  0  0
 62 81  1  0  0  0  0
 62123  1  0  0  0  0
 62124  1  0  0  0  0
 63125  1  0  0  0  0
 63126  1  0  0  0  0
 63127  1  0  0  0  0
 64 84  1  0  0  0  0
 64128  1  0  0  0  0
 64129  1  0  0  0  0
 65 82  1  0  0  0  0
 65130  1  0  0  0  0
 65131  1  0  0  0  0
 66 83  1  0  0  0  0
 66132  1  0  0  0  0
 66133  1  0  0  0  0
 67134  1  0  0  0  0
 67135  1  0  0  0  0
 67136  1  0  0  0  0
 68 79  1  0  0  0  0
 68137  1  0  0  0  0
 69 86  1  0  0  0  0
 70138  1  0  0  0  0
 70139  1  0  0  0  0
 70140  1  0  0  0  0
 71 89  1  0  0  0  0
 71141  1  0  0  0  0
 71142  1  0  0  0  0
 72143  1  0  0  0  0
 72144  1  0  0  0  0
 72145  1  0  0  0  0
 73 87  1  0  0  0  0
 73146  1  0  0  0  0
 73147  1  0  0  0  0
 74 88  1  0  0  0  0
 74148  1  0  0  0  0
 74149  1  0  0  0  0
 75150  1  0  0  0  0
 75151  1  0  0  0  0
 75152  1  0  0  0  0
 76153  1  0  0  0  0
 76154  1  0  0  0  0
 76155  1  0  0  0  0
 77156  1  0  0  0  0
 77157  1  0  0  0  0
 77158  1  0  0  0  0
 78 90  2  0  0  0  0
 78159  1  0  0  0  0
 79 80  1  0  0  0  0
 79160  1  0  0  0  0
 80161  1  0  0  0  0
 82 93  1  0  0  0  0
 82162  1  0  0  0  0
 82163  1  0  0  0  0
 83 94  1  0  0  0  0
 83164  1  0  0  0  0
 83165  1  0  0  0  0
 85 92  1  0  0  0  0
 85166  1  6  0  0  0
 86 91  2  0  0  0  0
 86167  1  0  0  0  0
 87 96  1  0  0  0  0
 87168  1  0  0  0  0
 87169  1  0  0  0  0
 88 97  1  0  0  0  0
 88170  1  0  0  0  0
 88171  1  0  0  0  0
 90 91  1  0  0  0  0
 90 98  1  0  0  0  0
 91100  1  0  0  0  0
 92 95  1  0  0  0  0
 92173  1  0  0  0  0
 95 99  1  0  0  0  0
 95179  1  6  0  0  0
 98180  1  0  0  0  0
 98181  1  0  0  0  0
 98182  1  0  0  0  0
 99103  1  6  0  0  0
 99183  1  0  0  0  0
100186  1  0  0  0  0
100187  1  0  0  0  0
100188  1  0  0  0  0
101104  1  0  0  0  0
102189  1  0  0  0  0
103194  1  0  0  0  0
103195  1  0  0  0  0
104107  2  0  0  0  0
105106  1  0  0  0  0
105200  1  0  0  0  0
105201  1  0  0  0  0
106109  1  1  0  0  0
106202  1  0  0  0  0
108204  1  0  0  0  0
109205  1  0  0  0  0
109206  1  0  0  0  0
109207  1  0  0  0  0
M  CHG  3  18  -1  21  -1  40  -1
M  END
> <PUBCHEM_COMPOUND_CID>
70678541

> <PUBCHEM_COMPOUND_CANONICALIZED>
1

> <PUBCHEM_CACTVS_COMPLEXITY>
3730

> <PUBCHEM_CACTVS_HBOND_ACCEPTOR>
27

> <PUBCHEM_CACTVS_HBOND_DONOR>
12

> <PUBCHEM_CACTVS_ROTATABLE_BOND>
17

> <PUBCHEM_CACTVS_SUBSKEYS>
AAADcfB//gIAAAAQAAAAAAAAAAAAAWLFixI8QIECAAAQAFgB/gAAHgAQCCAAD7zhnwY38L/MFxCoQydzdICCgC0xEqAB2KE4dJiLeLLA2dGeZAhvlgLbyCf8ucKfiAAAQAAQACAQAACAACAAQAAAAAAAAA==

> <PUBCHEM_IUPAC_OPENEYE_NAME>
(2R,3R,4S,5R)-2-(6-aminopurin-9-yl)-5-methanidyl-tetrahydrofuran-3,4-diol;cobalt;[(2R,3S,4R,5S)-5-(5,6-dimethylbenzimidazol-1-yl)-4-hydroxy-2-(hydroxymethyl)tetrahydrofuran-3-yl] [(1R)-1-methyl-2-[3-[(1R,2R,3R,4Z,7S,9Z,12S,13S,14Z,17S,18S,19R)-2,13,18-tris(2-amino-2-oxo-ethyl)-7,12,17-tris(3-amino-3-oxo-propyl)-3,5,8,8,13,15,18,19-octamethyl-2,7,12,17-tetrahydro-1H-corrin-21-id-3-yl]propanoylamino]ethyl] phosphate

> <PUBCHEM_IUPAC_CAS_NAME>
(2R,3R,4S,5R)-2-(6-aminopurin-9-yl)-5-methanidyloxolane-3,4-diol;cobalt;[(2R,3S,4R,5S)-5-(5,6-dimethyl-1-benzimidazolyl)-4-hydroxy-2-(hydroxymethyl)-3-oxolanyl] [(2R)-1-[[1-oxo-3-[(1R,2R,3R,4Z,7S,9Z,12S,13S,14Z,17S,18S,19R)-2,13,18-tris(2-amino-2-oxoethyl)-7,12,17-tris(3-amino-3-oxopropyl)-3,5,8,8,13,15,18,19-octamethyl-2,7,12,17-tetrahydro-1H-corrin-21-id-3-yl]propyl]amino]propan-2-yl] phosphate

> <PUBCHEM_IUPAC_NAME_MARKUP>
(2<I>R</I>,3<I>R</I>,4<I>S</I>,5<I>R</I>)-2-(6-aminopurin-9-yl)-5-methanidyloxolane-3,4-diol;cobalt;[(2<I>R</I>,3<I>S</I>,4<I>R</I>,5<I>S</I>)-5-(5,6-dimethylbenzimidazol-1-yl)-4-hydroxy-2-(hydroxymethyl)oxolan-3-yl] [(2<I>R</I>)-1-[3-[(1<I>R</I>,2<I>R</I>,3<I>R</I>,4<I>Z</I>,7<I>S</I>,9<I>Z</I>,12<I>S</I>,13<I>S</I>,14<I>Z</I>,17<I>S</I>,18<I>S</I>,19<I>R</I>)-2,13,18-tris(2-amino-2-oxoethyl)-7,12,17-tris(3-amino-3-oxopropyl)-3,5,8,8,13,15,18,19-octamethyl-2,7,12,17-tetrahydro-1<I>H</I>-corrin-21-id-3-yl]propanoylamino]propan-2-yl] phosphate

> <PUBCHEM_IUPAC_NAME>
(2R,3R,4S,5R)-2-(6-aminopurin-9-yl)-5-methanidyloxolane-3,4-diol;cobalt;[(2R,3S,4R,5S)-5-(5,6-dimethylbenzimidazol-1-yl)-4-hydroxy-2-(hydroxymethyl)oxolan-3-yl] [(2R)-1-[3-[(1R,2R,3R,4Z,7S,9Z,12S,13S,14Z,17S,18S,19R)-2,13,18-tris(2-amino-2-oxoethyl)-7,12,17-tris(3-amino-3-oxopropyl)-3,5,8,8,13,15,18,19-octamethyl-2,7,12,17-tetrahydro-1H-corrin-21-id-3-yl]propanoylamino]propan-2-yl] phosphate

> <PUBCHEM_IUPAC_SYSTEMATIC_NAME>
(2R,3R,4S,5R)-2-(6-aminopurin-9-yl)-5-methanidyl-oxolane-3,4-diol;cobalt;[(2R,3S,4R,5S)-5-(5,6-dimethylbenzimidazol-1-yl)-2-(hydroxymethyl)-4-oxidanyl-oxolan-3-yl] [(2R)-1-[3-[(1R,2R,3R,4Z,7S,9Z,12S,13S,14Z,17S,18S,19R)-2,13,18-tris(2-azanyl-2-oxidanylidene-ethyl)-7,12,17-tris(3-azanyl-3-oxidanylidene-propyl)-3,5,8,8,13,15,18,19-octamethyl-2,7,12,17-tetrahydro-1H-corrin-21-id-3-yl]propanoylamino]propan-2-yl] phosphate

> <PUBCHEM_IUPAC_TRADITIONAL_NAME>
(2R,3R,4S,5R)-2-adenin-9-yl-5-methanidyl-tetrahydrofuran-3,4-diol;cobalt;[(2R,3S,4R,5S)-5-(5,6-dimethylbenzimidazol-1-yl)-4-hydroxy-2-methylol-tetrahydrofuran-3-yl] [(1R)-1-methyl-2-[3-[(1R,2R,3R,4Z,7S,9Z,12S,13S,14Z,17S,18S,19R)-2,13,18-tris(2-amino-2-keto-ethyl)-7,12,17-tris(3-amino-3-keto-propyl)-3,5,8,8,13,15,18,19-octamethyl-2,7,12,17-tetrahydro-1H-corrin-21-id-3-yl]propanoylamino]ethyl] phosphate

> <PUBCHEM_IUPAC_INCHI>
InChI=1S/C62H90N13O14P.C10H12N5O3.Co/c1-29-20-39-40(21-30(29)2)75(28-70-39)57-52(84)53(41(27-76)87-57)89-90(85,86)88-31(3)26-69-49(83)18-19-59(8)37(22-46(66)80)56-62(11)61(10,25-48(68)82)36(14-17-45(65)79)51(74-62)33(5)55-60(9,24-47(67)81)34(12-15-43(63)77)38(71-55)23-42-58(6,7)35(13-16-44(64)78)50(72-42)32(4)54(59)73-56;1-4-6(16)7(17)10(18-4)15-3-14-5-8(11)12-2-13-9(5)15;/h20-21,23,28,31,34-37,41,52-53,56-57,76,84H,12-19,22,24-27H2,1-11H3,(H15,63,64,65,66,67,68,69,71,72,73,74,77,78,79,80,81,82,83,85,86);2-4,6-7,10,16-17H,1H2,(H2,11,12,13);/q;-1;/p-2/t31-,34-,35-,36-,37+,41-,52-,53-,56-,57+,59-,60+,61+,62+;4-,6-,7-,10-;/m11./s1

> <PUBCHEM_IUPAC_INCHIKEY>
DFDCDQDATCDZSO-OUCXYWSSSA-L

> <PUBCHEM_EXACT_MASS>
1578.658339

> <PUBCHEM_MOLECULAR_FORMULA>
C72H100CoN18O17P-3

> <PUBCHEM_MOLECULAR_WEIGHT>
1579.6

> <PUBCHEM_SMILES>
CC1=CC2=C(C=C1C)N(C=N2)[C@@H]3[C@@H]([C@@H]([C@H](O3)CO)OP(=O)([O-])O[C@H](C)CNC(=O)CC[C@@]\4([C@H]([C@@H]5[C@]6([C@@]([C@@H](C(=N6)/C(=C\7/[C@@]([C@@H](C(=N7)/C=C\8/C([C@@H](C(=N8)/C(=C4\[N-]5)/C)CCC(=O)N)(C)C)CCC(=O)N)(C)CC(=O)N)/C)CCC(=O)N)(C)CC(=O)N)C)CC(=O)N)C)O.[CH2-][C@@H]1[C@H]([C@H]([C@@H](O1)N2C=NC3=C(N=CN=C32)N)O)O.[Co]

> <PUBCHEM_CONNECTIVITY_SMILES>
CC1=CC2=C(C=C1C)N(C=N2)C3C(C(C(O3)CO)OP(=O)([O-])OC(C)CNC(=O)CCC4(C(C5C6(C(C(C(=N6)C(=C7C(C(C(=N7)C=C8C(C(C(=N8)C(=C4[N-]5)C)CCC(=O)N)(C)C)CCC(=O)N)(C)CC(=O)N)C)CCC(=O)N)(C)CC(=O)N)C)CC(=O)N)C)O.[CH2-]C1C(C(C(O1)N2C=NC3=C(N=CN=C32)N)O)O.[Co]

> <PUBCHEM_CACTVS_TPSA>
571

> <PUBCHEM_MONOISOTOPIC_WEIGHT>
1578.658339

> <PUBCHEM_TOTAL_CHARGE>
-3

> <PUBCHEM_HEAVY_ATOM_COUNT>
109

> <PUBCHEM_ATOM_DEF_STEREO_COUNT>
18

> <PUBCHEM_ATOM_UDEF_STEREO_COUNT>
0

> <PUBCHEM_BOND_DEF_STEREO_COUNT>
3

> <PUBCHEM_BOND_UDEF_STEREO_COUNT>
0

> <PUBCHEM_ISOTOPIC_ATOM_COUNT>
0

> <PUBCHEM_COMPONENT_COUNT>
3

> <PUBCHEM_CACTVS_TAUTO_COUNT>
-1

> <PUBCHEM_NONSTANDARDBOND>
1  20  6
1  21  6
1  22  6
1  23  6
1  24  6
1  40  6

> <PUBCHEM_COORDINATE_TYPE>
1
5
255

> <PUBCHEM_BONDANNOTATIONS>
92  10  5
101  104  8
104  107  8
106  109  5
24  60  8
24  61  8
25  61  8
25  69  8
26  101  8
26  102  8
80  26  5
34  102  8
34  104  8
35  101  8
35  108  8
36  107  8
36  108  8
38  52  6
39  110  5
68  4  6
51  40  5
41  63  6
44  64  5
45  67  5
46  66  6
79  5  6
55  75  6
57  73  6
58  74  6
60  69  8
60  78  8
69  86  8
78  90  8
85  166  6
86  91  8
90  91  8
95  179  6
99  103  6

$$$$
6436143
  -OEChem-04182609202D

209217  0     1  0  0  0  0  0999 V2000
    1.8333    0.0000    0.0000 Co  0  1  0  0  0  0  0  0  0  0  0  0
    5.5000    0.0000    0.0000 P   0  0  3  0  0  0  0  0  0  0  0  0
    4.9500   -6.3500    0.0000 O   0  0  0  0  0  0  0  0  0  0  0  0
    3.4375  -29.8000    0.0000 O   0  0  0  0  0  0  0  0  0  0  0  0
    0.7857  -24.3500    0.0000 O   0  0  0  0  0  0  0  0  0  0  0  0
    8.2500   -6.0000    0.0000 O   0  0  0  0  0  0  0  0  0  0  0  0
    0.7857  -12.3500    0.0000 O   0  0  0  0  0  0  0  0  0  0  0  0
    9.1667    0.0000    0.0000 O   0  0  0  0  0  0  0  0  0  0  0  0
    1.6500   -8.1500    0.0000 O   0  0  0  0  0  0  0  0  0  0  0  0
    3.4375  -33.8000    0.0000 O   0  0  0  0  0  0  0  0  0  0  0  0
    4.9500   -8.3500    0.0000 O   0  0  0  0  0  0  0  0  0  0  0  0
    2.7500   -2.1500    0.0000 O   0  0  0  0  0  0  0  0  0  0  0  0
    1.8333  -38.3500    0.0000 O   0  0  0  0  0  0  0  0  0  0  0  0
    0.9167   -2.3500    0.0000 O   0  0  0  0  0  0  0  0  0  0  0  0
    8.9375  -31.8000    0.0000 O   0  0  0  0  0  0  0  0  0  0  0  0
    6.8750  -39.8000    0.0000 O   0  0  0  0  0  0  0  0  0  0  0  0
    2.5000   -9.8000    0.0000 O   0  0  0  0  0  0  0  0  0  0  0  0
    6.4167   -2.0000    0.0000 O   0  5  0  0  0  0  0  0  0  0  0  0
    4.5833   -1.8000    0.0000 O   0  0  0  0  0  0  0  0  0  0  0  0
    6.4167  -20.0000    0.0000 N   0  5  0  0  0  0  0  0  0  0  0  0
    3.9286  -23.8000    0.0000 N   0  0  0  0  0  0  0  0  0  0  0  0
    6.4167  -14.0000    0.0000 N   0  0  0  0  0  0  0  0  0  0  0  0
    8.6429  -24.1500    0.0000 N   0  0  0  0  0  0  0  0  0  0  0  0
    0.6875  -32.3500    0.0000 N   0  0  0  0  0  0  0  0  0  0  0  0
    4.8125  -30.0000    0.0000 N   0  0  0  0  0  0  0  0  0  0  0  0
    2.3571  -24.1500    0.0000 N   0  0  0  0  0  0  0  0  0  0  0  0
    4.5000  -10.3500    0.0000 N   0  0  0  0  0  0  0  0  0  0  0  0
    0.5500   -8.3500    0.0000 N   0  0  0  0  0  0  0  0  0  0  0  0
    6.0500   -6.1500    0.0000 N   0  0  0  0  0  0  0  0  0  0  0  0
    4.8125  -34.0000    0.0000 N   0  0  0  0  0  0  0  0  0  0  0  0
    5.5000  -38.1500    0.0000 N   0  0  0  0  0  0  0  0  0  0  0  0
   10.3125  -32.0000    0.0000 N   0  0  0  0  0  0  0  0  0  0  0  0
    8.5000   -9.8000    0.0000 N   0  0  0  0  0  0  0  0  0  0  0  0
    9.6250  -40.0000    0.0000 N   0  0  0  0  0  0  0  0  0  0  0  0
    6.5000  -10.3500    0.0000 N   0  0  0  0  0  0  0  0  0  0  0  0
    8.2500  -14.3500    0.0000 N   0  0  0  0  0  0  0  0  0  0  0  0
   10.0833  -14.1500    0.0000 N   0  0  0  0  0  0  0  0  0  0  0  0
    4.1250  -22.1500    0.0000 C   0  0  1  0  0  0  0  0  0  0  0  0
    2.7500  -20.1500    0.0000 C   0  0  3  0  0  0  0  0  0  0  0  0
    7.0714  -24.3500    0.0000 C   0  0  2  0  0  0  0  0  0  0  0  0
    3.3000  -18.1500    0.0000 C   0  0  1  0  0  0  0  0  0  0  0  0
    1.1000  -16.3500    0.0000 C   0  0  2  0  0  0  0  0  0  0  0  0
    6.0500  -26.1500    0.0000 C   0  0  1  0  0  0  0  0  0  0  0  0
    5.5000  -17.8000    0.0000 C   0  0  0  0  0  0  0  0  0  0  0  0
    5.5000  -24.0000    0.0000 C   0  0  0  0  0  0  0  0  0  0  0  0
    2.7500  -25.8000    0.0000 C   0  0  0  0  0  0  0  0  0  0  0  0
    3.8500  -26.0000    0.0000 C   0  0  0  0  0  0  0  0  0  0  0  0
    0.9167  -20.3500    0.0000 C   0  0  0  0  0  0  0  0  0  0  0  0
    0.9167  -14.3500    0.0000 C   0  0  0  0  0  0  0  0  0  0  0  0
    4.9500  -26.3500    0.0000 C   0  0  0  0  0  0  0  0  0  0  0  0
    1.1000  -18.3500    0.0000 C   0  0  0  0  0  0  0  0  0  0  0  0
    3.4375  -27.8000    0.0000 C   0  0  0  0  0  0  0  0  0  0  0  0
    8.2500  -20.3500    0.0000 C   0  0  0  0  0  0  0  0  0  0  0  0
    0.6875  -28.3500    0.0000 C   0  0  0  0  0  0  0  0  0  0  0  0
    2.3571  -12.1500    0.0000 C   0  0  0  0  0  0  0  0  0  0  0  0
   10.4500   -8.0000    0.0000 C   0  5  0  0  0  0  0  0  0  0  0  0
    9.6250  -22.0000    0.0000 C   0  0  0  0  0  0  0  0  0  0  0  0
    2.0625  -28.1500    0.0000 C   0  0  0  0  0  0  0  0  0  0  0  0
    6.1875  -30.3500    0.0000 C   0  0  0  0  0  0  0  0  0  0  0  0
    1.3750  -22.3500    0.0000 C   0  0  0  0  0  0  0  0  0  0  0  0
   10.2143  -23.8000    0.0000 C   0  0  2  0  0  0  0  0  0  0  0  0
    2.0625  -30.1500    0.0000 C   0  0  0  0  0  0  0  0  0  0  0  0
    2.0625  -32.1500    0.0000 C   0  0  2  0  0  0  0  0  0  0  0  0
    6.8750  -21.8000    0.0000 C   0  0  0  0  0  0  0  0  0  0  0  0
    9.3500  -26.3500    0.0000 C   0  0  0  0  0  0  0  0  0  0  0  0
    9.3500   -6.3500    0.0000 C   0  0  3  0  0  0  0  0  0  0  0  0
    7.5625  -32.1500    0.0000 C   0  0  1  0  0  0  0  0  0  0  0  0
    0.6875  -30.3500    0.0000 C   0  0  0  0  0  0  0  0  0  0  0  0
    7.1500  -25.8000    0.0000 C   0  0  0  0  0  0  0  0  0  0  0  0
    0.5000  -10.3500    0.0000 C   0  0  0  0  0  0  0  0  0  0  0  0
    7.5625  -30.1500    0.0000 C   0  0  0  0  0  0  0  0  0  0  0  0
    2.7500  -14.1500    0.0000 C   0  0  0  0  0  0  0  0  0  0  0  0
    7.7000   -4.1500    0.0000 C   0  0  1  0  0  0  0  0  0  0  0  0
    8.2500  -26.0000    0.0000 C   0  0  0  0  0  0  0  0  0  0  0  0
    7.0714  -12.3500    0.0000 C   0  0  0  0  0  0  0  0  0  0  0  0
    0.6875  -34.3500    0.0000 C   0  0  0  0  0  0  0  0  0  0  0  0
    6.1875  -32.3500    0.0000 C   0  0  0  0  0  0  0  0  0  0  0  0
    6.1875  -28.3500    0.0000 C   0  0  0  0  0  0  0  0  0  0  0  0
    2.0625  -34.1500    0.0000 C   0  0  0  0  0  0  0  0  0  0  0  0
    8.2500   -2.3500    0.0000 C   0  0  1  0  0  0  0  0  0  0  0  0
    8.9375  -27.8000    0.0000 C   0  0  0  0  0  0  0  0  0  0  0  0
   10.3125  -28.0000    0.0000 C   0  0  0  0  0  0  0  0  0  0  0  0
    6.1875  -34.3500    0.0000 C   0  0  0  0  0  0  0  0  0  0  0  0
    5.5000  -12.0000    0.0000 C   0  0  0  0  0  0  0  0  0  0  0  0
    5.5000   -4.3500    0.0000 C   0  0  2  0  0  0  0  0  0  0  0  0
    6.0500   -8.1500    0.0000 C   0  0  2  0  0  0  0  0  0  0  0  0
    7.5625  -28.1500    0.0000 C   0  0  0  0  0  0  0  0  0  0  0  0
    3.3000  -16.1500    0.0000 C   0  0  0  0  0  0  0  0  0  0  0  0
    9.6250  -36.0000    0.0000 C   0  0  0  0  0  0  0  0  0  0  0  0
    4.5833  -13.8000    0.0000 C   0  0  0  0  0  0  0  0  0  0  0  0
    1.3750  -36.3500    0.0000 C   0  0  0  0  0  0  0  0  0  0  0  0
    3.8500   -6.0000    0.0000 C   0  0  3  0  0  0  0  0  0  0  0  0
    7.7000  -18.0000    0.0000 C   0  0  0  0  0  0  0  0  0  0  0  0
    3.3000   -4.1500    0.0000 C   0  0  3  0  0  0  0  0  0  0  0  0
    0.5500   -6.3500    0.0000 C   0  0  0  0  0  0  0  0  0  0  0  0
    5.5000  -15.8000    0.0000 C   0  0  0  0  0  0  0  0  0  0  0  0
    2.7500   -5.8000    0.0000 C   0  0  1  0  0  0  0  0  0  0  0  0
   10.3125  -30.0000    0.0000 C   0  0  0  0  0  0  0  0  0  0  0  0
    1.1000   -4.3500    0.0000 C   0  0  3  0  0  0  0  0  0  0  0  0
    7.1500   -8.3500    0.0000 C   0  0  0  0  0  0  0  0  0  0  0  0
    9.1667  -37.8000    0.0000 C   0  0  0  0  0  0  0  0  0  0  0  0
    8.2500   -8.1500    0.0000 C   0  0  0  0  0  0  0  0  0  0  0  0
   10.0833  -20.1500    0.0000 C   0  0  0  0  0  0  0  0  0  0  0  0
    9.9000  -18.3500    0.0000 C   0  0  0  0  0  0  0  0  0  0  0  0
    2.7500   -7.8000    0.0000 C   0  0  0  0  0  0  0  0  0  0  0  0
    7.5000  -10.1500    0.0000 C   0  0  0  0  0  0  0  0  0  0  0  0
    1.6500   -6.1500    0.0000 C   0  0  0  0  0  0  0  0  0  0  0  0
   10.2143  -12.1500    0.0000 C   0  0  0  0  0  0  0  0  0  0  0  0
    8.6429  -12.3500    0.0000 C   0  0  0  0  0  0  0  0  0  0  0  0
    1.1306  -20.4229    0.0000 H   0  0  0  0  0  0  0  0  0  0  0  0
    4.5833  -19.8000    0.0000 H   0  0  0  0  0  0  0  0  0  0  0  0
    4.8125  -28.0000    0.0000 H   0  0  0  0  0  0  0  0  0  0  0  0
    4.1819  -24.9797    0.0000 H   0  0  0  0  0  0  0  0  0  0  0  0
    6.4796  -25.3181    0.0000 H   0  0  0  0  0  0  0  0  0  0  0  0
    6.8181  -23.0203    0.0000 H   0  0  0  0  0  0  0  0  0  0  0  0
    3.7116  -24.3636    0.0000 H   0  0  0  0  0  0  0  0  0  0  0  0
    4.8766  -27.2818    0.0000 H   0  0  0  0  0  0  0  0  0  0  0  0
    0.0276  -18.9692    0.0000 H   0  0  0  0  0  0  0  0  0  0  0  0
   -0.5968  -20.9875    0.0000 H   0  0  0  0  0  0  0  0  0  0  0  0
   -0.1302  -13.0847    0.0000 H   0  0  0  0  0  0  0  0  0  0  0  0
   -0.6015  -14.9763    0.0000 H   0  0  0  0  0  0  0  0  0  0  0  0
    3.8234  -25.1550    0.0000 H   0  0  0  0  0  0  0  0  0  0  0  0
    3.7550  -27.4766    0.0000 H   0  0  0  0  0  0  0  0  0  0  0  0
    6.0766  -27.5450    0.0000 H   0  0  0  0  0  0  0  0  0  0  0  0
   -0.5423  -18.3500    0.0000 H   0  0  0  0  0  0  0  0  0  0  0  0
    1.1000  -19.9923    0.0000 H   0  0  0  0  0  0  0  0  0  0  0  0
    2.7423  -18.3500    0.0000 H   0  0  0  0  0  0  0  0  0  0  0  0
    2.4437  -26.4925    0.0000 H   0  0  0  0  0  0  0  0  0  0  0  0
    2.2209  -28.9031    0.0000 H   0  0  0  0  0  0  0  0  0  0  0  0
    3.6714  -13.1348    0.0000 H   0  0  0  0  0  0  0  0  0  0  0  0
    3.4232  -10.9007    0.0000 H   0  0  0  0  0  0  0  0  0  0  0  0
    9.5000  -10.0000    0.0000 H   0  0  0  0  0  0  0  0  0  0  0  0
   10.5000  -10.3500    0.0000 H   0  0  0  0  0  0  0  0  0  0  0  0
    7.7790  -30.7551    0.0000 H   0  0  0  0  0  0  0  0  0  0  0  0
    6.9726  -28.9076    0.0000 H   0  0  0  0  0  0  0  0  0  0  0  0
   10.4500  -26.1500    0.0000 H   0  0  0  0  0  0  0  0  0  0  0  0
    5.6833  -20.6700    0.0000 H   0  0  0  0  0  0  0  0  0  0  0  0
    5.7450  -22.9917    0.0000 H   0  0  0  0  0  0  0  0  0  0  0  0
    8.0667  -22.9300    0.0000 H   0  0  0  0  0  0  0  0  0  0  0  0
    8.5751   -7.7979    0.0000 H   0  0  0  0  0  0  0  0  0  0  0  0
    7.5625  -34.1500    0.0000 H   0  0  0  0  0  0  0  0  0  0  0  0
   -0.9548  -30.3500    0.0000 H   0  0  0  0  0  0  0  0  0  0  0  0
    0.6875  -31.9923    0.0000 H   0  0  0  0  0  0  0  0  0  0  0  0
    2.3298  -30.3500    0.0000 H   0  0  0  0  0  0  0  0  0  0  0  0
   10.4500   -6.1500    0.0000 H   0  0  0  0  0  0  0  0  0  0  0  0
    7.5237  -24.5271    0.0000 H   0  0  0  0  0  0  0  0  0  0  0  0
    9.6759  -26.8148    0.0000 H   0  0  0  0  0  0  0  0  0  0  0  0
    8.6559  -11.9183    0.0000 H   0  0  0  0  0  0  0  0  0  0  0  0
   -0.4735  -33.1885    0.0000 H   0  0  0  0  0  0  0  0  0  0  0  0
   -0.7055  -35.2197    0.0000 H   0  0  0  0  0  0  0  0  0  0  0  0
    8.9375  -29.8000    0.0000 H   0  0  0  0  0  0  0  0  0  0  0  0
    3.4375  -31.8000    0.0000 H   0  0  0  0  0  0  0  0  0  0  0  0
    4.8125  -32.0000    0.0000 H   0  0  0  0  0  0  0  0  0  0  0  0
    0.4202  -34.1500    0.0000 H   0  0  0  0  0  0  0  0  0  0  0  0
    2.0625  -35.7923    0.0000 H   0  0  0  0  0  0  0  0  0  0  0  0
    3.7048  -34.1500    0.0000 H   0  0  0  0  0  0  0  0  0  0  0  0
    0.5500  -26.3500    0.0000 H   0  0  0  0  0  0  0  0  0  0  0  0
    1.6500  -26.1500    0.0000 H   0  0  0  0  0  0  0  0  0  0  0  0
    9.9000   -3.8000    0.0000 H   0  0  0  0  0  0  0  0  0  0  0  0
    7.3579  -27.3506    0.0000 H   0  0  0  0  0  0  0  0  0  0  0  0
    8.4881  -29.3796    0.0000 H   0  0  0  0  0  0  0  0  0  0  0  0
   10.5171  -28.2494    0.0000 H   0  0  0  0  0  0  0  0  0  0  0  0
    8.8939  -28.8275    0.0000 H   0  0  0  0  0  0  0  0  0  0  0  0
   11.1400  -29.4186    0.0000 H   0  0  0  0  0  0  0  0  0  0  0  0
   11.7311  -27.1725    0.0000 H   0  0  0  0  0  0  0  0  0  0  0  0
    4.7636  -33.5317    0.0000 H   0  0  0  0  0  0  0  0  0  0  0  0
    5.4225  -35.8032    0.0000 H   0  0  0  0  0  0  0  0  0  0  0  0
    7.1500   -5.8000    0.0000 H   0  0  0  0  0  0  0  0  0  0  0  0
    5.5000  -10.1500    0.0000 H   0  0  0  0  0  0  0  0  0  0  0  0
    6.0523  -27.5048    0.0000 H   0  0  0  0  0  0  0  0  0  0  0  0
    6.7781  -29.5928    0.0000 H   0  0  0  0  0  0  0  0  0  0  0  0
    2.0660  -17.2336    0.0000 H   0  0  0  0  0  0  0  0  0  0  0  0
    1.5000  -10.1500    0.0000 H   0  0  0  0  0  0  0  0  0  0  0  0
   11.1863  -36.5094    0.0000 H   0  0  0  0  0  0  0  0  0  0  0  0
   10.2364  -34.4758    0.0000 H   0  0  0  0  0  0  0  0  0  0  0  0
    2.9414  -13.7661    0.0000 H   0  0  0  0  0  0  0  0  0  0  0  0
    5.2561   -5.1515    0.0000 H   0  0  0  0  0  0  0  0  0  0  0  0
    9.3500   -7.8000    0.0000 H   0  0  0  0  0  0  0  0  0  0  0  0
    4.1250  -36.1500    0.0000 H   0  0  0  0  0  0  0  0  0  0  0  0
    6.8750  -35.8000    0.0000 H   0  0  0  0  0  0  0  0  0  0  0  0
    4.8789   -3.6982    0.0000 H   0  0  0  0  0  0  0  0  0  0  0  0
   -0.7034   -5.2889    0.0000 H   0  0  0  0  0  0  0  0  0  0  0  0
    2.1775   -6.5697    0.0000 H   0  0  0  0  0  0  0  0  0  0  0  0
    3.8500   -8.0000    0.0000 H   0  0  0  0  0  0  0  0  0  0  0  0
   10.0833   -2.1500    0.0000 H   0  0  0  0  0  0  0  0  0  0  0  0
    2.7115   -4.0334    0.0000 H   0  0  0  0  0  0  0  0  0  0  0  0
    9.6977   -7.3747    0.0000 H   0  0  0  0  0  0  0  0  0  0  0  0
    8.9833  -21.3694    0.0000 H   0  0  0  0  0  0  0  0  0  0  0  0
   11.3027  -21.2500    0.0000 H   0  0  0  0  0  0  0  0  0  0  0  0
   11.1834  -18.9306    0.0000 H   0  0  0  0  0  0  0  0  0  0  0  0
    1.3750  -40.3500    0.0000 H   0  0  0  0  0  0  0  0  0  0  0  0
    4.1250  -40.1500    0.0000 H   0  0  0  0  0  0  0  0  0  0  0  0
    9.0765  -19.7709    0.0000 H   0  0  0  0  0  0  0  0  0  0  0  0
   11.3209  -19.1735    0.0000 H   0  0  0  0  0  0  0  0  0  0  0  0
   10.7235  -16.9291    0.0000 H   0  0  0  0  0  0  0  0  0  0  0  0
    4.0994   -8.7361    0.0000 H   0  0  0  0  0  0  0  0  0  0  0  0
    1.1109   -7.6980    0.0000 H   0  0  0  0  0  0  0  0  0  0  0  0
    3.5000  -10.0000    0.0000 H   0  0  0  0  0  0  0  0  0  0  0  0
    8.9375  -33.8000    0.0000 H   0  0  0  0  0  0  0  0  0  0  0  0
   10.3125  -34.0000    0.0000 H   0  0  0  0  0  0  0  0  0  0  0  0
    0.0794   -6.6299    0.0000 H   0  0  0  0  0  0  0  0  0  0  0  0
    2.1299   -7.7206    0.0000 H   0  0  0  0  0  0  0  0  0  0  0  0
    3.2206   -5.6701    0.0000 H   0  0  0  0  0  0  0  0  0  0  0  0
    2.7500  -42.3500    0.0000 H   0  0  0  0  0  0  0  0  0  0  0  0
    8.2500  -42.1500    0.0000 H   0  0  0  0  0  0  0  0  0  0  0  0
    3.9286  -11.8000    0.0000 H   0  0  0  0  0  0  0  0  0  0  0  0
   10.2054  -11.8444    0.0000 H   0  0  0  0  0  0  0  0  0  0  0  0
    7.7000  -16.3500    0.0000 H   0  0  0  0  0  0  0  0  0  0  0  0
    9.9000  -16.1500    0.0000 H   0  0  0  0  0  0  0  0  0  0  0  0
  2 12  1  0  0  0  0
  2 14  1  0  0  0  0
  2 18  1  0  0  0  0
  2 19  2  0  0  0  0
  3 66  1  0  0  0  0
  3 85  1  0  0  0  0
  4 58  2  0  0  0  0
  5 60  2  0  0  0  0
  6 73  1  0  0  0  0
  6178  1  0  0  0  0
  7 70  2  0  0  0  0
  8 80  1  0  0  0  0
  8185  1  0  0  0  0
  9 86  1  0  0  0  0
  9 97  1  0  0  0  0
 10 77  2  0  0  0  0
 11 92  1  0  0  0  0
 11198  1  0  0  0  0
 12 94  1  0  0  0  0
 13 91  2  0  0  0  0
 14 99  1  0  0  0  0
 15 98  2  0  0  0  0
 16101  2  0  0  0  0
 17105  1  0  0  0  0
 17206  1  0  0  0  0
 20 39  1  0  0  0  0
 20 44  1  0  0  0  0
 21 38  1  0  0  0  0
 21 46  2  0  0  0  0
 22 72  1  0  0  0  0
 22 75  2  0  0  0  0
 23 57  2  0  0  0  0
 23 69  1  0  0  0  0
 24 62  1  0  0  0  0
 24 71  2  0  0  0  0
 25 58  1  0  0  0  0
 25152  1  0  0  0  0
 25153  1  0  0  0  0
 26 60  1  0  0  0  0
 26157  1  0  0  0  0
 26158  1  0  0  0  0
 27 75  1  0  0  0  0
 27 84  1  0  0  0  0
 27 86  1  0  0  0  0
 28 70  1  0  0  0  0
 28 95  1  0  0  0  0
 28173  1  0  0  0  0
 29 85  1  0  0  0  0
 29100  1  0  0  0  0
 29102  1  0  0  0  0
 30 77  1  0  0  0  0
 30179  1  0  0  0  0
 30180  1  0  0  0  0
 31 91  1  0  0  0  0
 31191  1  0  0  0  0
 31192  1  0  0  0  0
 32 98  1  0  0  0  0
 32199  1  0  0  0  0
 32200  1  0  0  0  0
 33102  2  0  0  0  0
 33106  1  0  0  0  0
 34101  1  0  0  0  0
 34204  1  0  0  0  0
 34205  1  0  0  0  0
 35100  2  0  0  0  0
 35109  1  0  0  0  0
 36108  1  0  0  0  0
 36109  2  0  0  0  0
 37108  1  0  0  0  0
 37208  1  0  0  0  0
 37209  1  0  0  0  0
 38 39  1  0  0  0  0
 38 40  1  0  0  0  0
 38 45  1  0  0  0  0
 39 41  1  0  0  0  0
 39110  1  0  0  0  0
 40 43  1  0  0  0  0
 40 47  1  0  0  0  0
 40 50  1  0  0  0  0
 41 42  1  0  0  0  0
 41 48  1  0  0  0  0
 41111  1  0  0  0  0
 42 44  1  0  0  0  0
 42 49  1  0  0  0  0
 42 51  1  0  0  0  0
 43 46  1  0  0  0  0
 43 52  1  0  0  0  0
 43112  1  0  0  0  0
 44 53  2  0  0  0  0
 45113  1  0  0  0  0
 45114  1  0  0  0  0
 45115  1  0  0  0  0
 46 54  1  0  0  0  0
 47 58  1  0  0  0  0
 47116  1  0  0  0  0
 47117  1  0  0  0  0
 48 60  1  0  0  0  0
 48118  1  0  0  0  0
 48119  1  0  0  0  0
 49 55  1  0  0  0  0
 49120  1  0  0  0  0
 49121  1  0  0  0  0
 50122  1  0  0  0  0
 50123  1  0  0  0  0
 50124  1  0  0  0  0
 51125  1  0  0  0  0
 51126  1  0  0  0  0
 51127  1  0  0  0  0
 52 59  1  0  0  0  0
 52128  1  0  0  0  0
 52129  1  0  0  0  0
 53 57  1  0  0  0  0
 53 64  1  0  0  0  0
 54 62  2  0  0  0  0
 54 68  1  0  0  0  0
 55 70  1  0  0  0  0
 55130  1  0  0  0  0
 55131  1  0  0  0  0
 56 66  1  0  0  0  0
 56132  1  0  0  0  0
 56133  1  0  0  0  0
 57 61  1  0  0  0  0
 59 77  1  0  0  0  0
 59134  1  0  0  0  0
 59135  1  0  0  0  0
 61 65  1  0  0  0  0
 61 74  1  0  0  0  0
 61136  1  0  0  0  0
 62 63  1  0  0  0  0
 63 67  1  0  0  0  0
 63 76  1  0  0  0  0
 63 79  1  0  0  0  0
 64137  1  0  0  0  0
 64138  1  0  0  0  0
 64139  1  0  0  0  0
 65 69  1  0  0  0  0
 65 81  1  0  0  0  0
 65 82  1  0  0  0  0
 66 73  1  0  0  0  0
 66140  1  0  0  0  0
 67 71  1  0  0  0  0
 67 83  1  0  0  0  0
 67141  1  0  0  0  0
 68142  1  0  0  0  0
 68143  1  0  0  0  0
 68144  1  0  0  0  0
 69 78  2  0  0  0  0
 71 78  1  0  0  0  0
 72 84  2  0  0  0  0
 72 88  1  0  0  0  0
 73 80  1  0  0  0  0
 73145  1  0  0  0  0
 74 87  1  0  0  0  0
 74146  1  0  0  0  0
 74147  1  0  0  0  0
 75148  1  0  0  0  0
 76 91  1  0  0  0  0
 76149  1  0  0  0  0
 76150  1  0  0  0  0
 78151  1  0  0  0  0
 79154  1  0  0  0  0
 79155  1  0  0  0  0
 79156  1  0  0  0  0
 80 85  1  0  0  0  0
 80159  1  0  0  0  0
 81160  1  0  0  0  0
 81161  1  0  0  0  0
 81162  1  0  0  0  0
 82163  1  0  0  0  0
 82164  1  0  0  0  0
 82165  1  0  0  0  0
 83 89  1  0  0  0  0
 83166  1  0  0  0  0
 83167  1  0  0  0  0
 84 90  1  0  0  0  0
 85168  1  0  0  0  0
 86 92  1  0  0  0  0
 86169  1  0  0  0  0
 87 98  1  0  0  0  0
 87170  1  0  0  0  0
 87171  1  0  0  0  0
 88 93  2  0  0  0  0
 88172  1  0  0  0  0
 89101  1  0  0  0  0
 89174  1  0  0  0  0
 89175  1  0  0  0  0
 90 96  2  0  0  0  0
 90176  1  0  0  0  0
 92 94  1  0  0  0  0
 92177  1  0  0  0  0
 93 96  1  0  0  0  0
 93103  1  0  0  0  0
 94 97  1  0  0  0  0
 94181  1  0  0  0  0
 95 99  1  0  0  0  0
 95182  1  0  0  0  0
 95183  1  0  0  0  0
 96104  1  0  0  0  0
 97105  1  0  0  0  0
 97184  1  0  0  0  0
 99107  1  0  0  0  0
 99186  1  0  0  0  0
100106  1  0  0  0  0
102187  1  0  0  0  0
103188  1  0  0  0  0
103189  1  0  0  0  0
103190  1  0  0  0  0
104193  1  0  0  0  0
104194  1  0  0  0  0
104195  1  0  0  0  0
105196  1  0  0  0  0
105197  1  0  0  0  0
106108  2  0  0  0  0
107201  1  0  0  0  0
107202  1  0  0  0  0
107203  1  0  0  0  0
109207  1  0  0  0  0
M  CHG  4   1   3  18  -1  20  -1  56  -1
M  END
> <PUBCHEM_COMPOUND_CID>
6436143

> <PUBCHEM_COMPOUND_CANONICALIZED>
1

> <PUBCHEM_CACTVS_COMPLEXITY>
3730

> <PUBCHEM_CACTVS_HBOND_ACCEPTOR>
27

> <PUBCHEM_CACTVS_HBOND_DONOR>
12

> <PUBCHEM_CACTVS_ROTATABLE_BOND>
17

> <PUBCHEM_CACTVS_SUBSKEYS>
AAADcfB//gIAAAAQAAAAAAAAAAAAAWLFiRI8QAAAAAAAAFgB/gAAHgAQCCAAD7zhnwY38L/MFxCoQydzdICCgC0xEqAB2KE4dJiLeLLA2dGeZAhvlgLbyCf8ucKfiAAAQAAQACAQAACAACAAQAAAAAAAAA==

> <PUBCHEM_IUPAC_OPENEYE_NAME>
cobaltic;(2S,3S,4R)-2-(6-aminopurin-9-yl)-5-methanidyl-tetrahydrofuran-3,4-diol;[(2R,5S)-5-(5,6-dimethylbenzimidazol-1-yl)-4-hydroxy-2-(hydroxymethyl)tetrahydrofuran-3-yl] [1-methyl-2-[3-[(2R,3R,4Z,7S,9Z,12S,13S,14Z,17S,18S,19R)-2,13,18-tris(2-amino-2-oxo-ethyl)-7,12,17-tris(3-amino-3-oxo-propyl)-3,5,8,8,13,15,18,19-octamethyl-2,7,12,17-tetrahydro-1H-corrin-21-id-3-yl]propanoylamino]ethyl] phosphate

> <PUBCHEM_IUPAC_CAS_NAME>
(2S,3S,4R)-2-(6-aminopurin-9-yl)-5-methanidyloxolane-3,4-diol;cobalt(3+);[(2R,5S)-5-(5,6-dimethyl-1-benzimidazolyl)-4-hydroxy-2-(hydroxymethyl)-3-oxolanyl] 1-[[1-oxo-3-[(2R,3R,4Z,7S,9Z,12S,13S,14Z,17S,18S,19R)-2,13,18-tris(2-amino-2-oxoethyl)-7,12,17-tris(3-amino-3-oxopropyl)-3,5,8,8,13,15,18,19-octamethyl-2,7,12,17-tetrahydro-1H-corrin-21-id-3-yl]propyl]amino]propan-2-yl phosphate

> <PUBCHEM_IUPAC_NAME_MARKUP>
(2<I>S</I>,3<I>S</I>,4<I>R</I>)-2-(6-aminopurin-9-yl)-5-methanidyloxolane-3,4-diol;cobalt(3+);[(2<I>R</I>,5<I>S</I>)-5-(5,6-dimethylbenzimidazol-1-yl)-4-hydroxy-2-(hydroxymethyl)oxolan-3-yl] 1-[3-[(2<I>R</I>,3<I>R</I>,4<I>Z</I>,7<I>S</I>,9<I>Z</I>,12<I>S</I>,13<I>S</I>,14<I>Z</I>,17<I>S</I>,18<I>S</I>,19<I>R</I>)-2,13,18-tris(2-amino-2-oxoethyl)-7,12,17-tris(3-amino-3-oxopropyl)-3,5,8,8,13,15,18,19-octamethyl-2,7,12,17-tetrahydro-1<I>H</I>-corrin-21-id-3-yl]propanoylamino]propan-2-yl phosphate

> <PUBCHEM_IUPAC_NAME>
(2S,3S,4R)-2-(6-aminopurin-9-yl)-5-methanidyloxolane-3,4-diol;cobalt(3+);[(2R,5S)-5-(5,6-dimethylbenzimidazol-1-yl)-4-hydroxy-2-(hydroxymethyl)oxolan-3-yl] 1-[3-[(2R,3R,4Z,7S,9Z,12S,13S,14Z,17S,18S,19R)-2,13,18-tris(2-amino-2-oxoethyl)-7,12,17-tris(3-amino-3-oxopropyl)-3,5,8,8,13,15,18,19-octamethyl-2,7,12,17-tetrahydro-1H-corrin-21-id-3-yl]propanoylamino]propan-2-yl phosphate

> <PUBCHEM_IUPAC_SYSTEMATIC_NAME>
(2S,3S,4R)-2-(6-aminopurin-9-yl)-5-methanidyl-oxolane-3,4-diol;cobalt(3+);[(2R,5S)-5-(5,6-dimethylbenzimidazol-1-yl)-2-(hydroxymethyl)-4-oxidanyl-oxolan-3-yl] 1-[3-[(2R,3R,4Z,7S,9Z,12S,13S,14Z,17S,18S,19R)-2,13,18-tris(2-azanyl-2-oxidanylidene-ethyl)-7,12,17-tris(3-azanyl-3-oxidanylidene-propyl)-3,5,8,8,13,15,18,19-octamethyl-2,7,12,17-tetrahydro-1H-corrin-21-id-3-yl]propanoylamino]propan-2-yl phosphate

> <PUBCHEM_IUPAC_TRADITIONAL_NAME>
cobaltic;(2S,3S,4R)-2-adenin-9-yl-5-methanidyl-tetrahydrofuran-3,4-diol;[(2R,5S)-5-(5,6-dimethylbenzimidazol-1-yl)-4-hydroxy-2-methylol-tetrahydrofuran-3-yl] [1-methyl-2-[3-[(2R,3R,4Z,7S,9Z,12S,13S,14Z,17S,18S,19R)-2,13,18-tris(2-amino-2-keto-ethyl)-7,12,17-tris(3-amino-3-keto-propyl)-3,5,8,8,13,15,18,19-octamethyl-2,7,12,17-tetrahydro-1H-corrin-21-id-3-yl]propanoylamino]ethyl] phosphate

> <PUBCHEM_IUPAC_INCHI>
InChI=1S/C62H90N13O14P.C10H12N5O3.Co/c1-29-20-39-40(21-30(29)2)75(28-70-39)57-52(84)53(41(27-76)87-57)89-90(85,86)88-31(3)26-69-49(83)18-19-59(8)37(22-46(66)80)56-62(11)61(10,25-48(68)82)36(14-17-45(65)79)51(74-62)33(5)55-60(9,24-47(67)81)34(12-15-43(63)77)38(71-55)23-42-58(6,7)35(13-16-44(64)78)50(72-42)32(4)54(59)73-56;1-4-6(16)7(17)10(18-4)15-3-14-5-8(11)12-2-13-9(5)15;/h20-21,23,28,31,34-37,41,52-53,56-57,76,84H,12-19,22,24-27H2,1-11H3,(H15,63,64,65,66,67,68,69,71,72,73,74,77,78,79,80,81,82,83,85,86);2-4,6-7,10,16-17H,1H2,(H2,11,12,13);/q;-1;+3/p-2/t31?,34-,35-,36-,37+,41-,52?,53?,56?,57+,59-,60+,61+,62+;4?,6-,7-,10-;/m10./s1

> <PUBCHEM_IUPAC_INCHIKEY>
OAJLVMGLJZXSGX-VCABRDNDSA-L

> <PUBCHEM_EXACT_MASS>
1578.658339

> <PUBCHEM_MOLECULAR_FORMULA>
C72H100CoN18O17P

> <PUBCHEM_MOLECULAR_WEIGHT>
1579.6

> <PUBCHEM_SMILES>
CC1=CC2=C(C=C1C)N(C=N2)[C@@H]3C(C([C@H](O3)CO)OP(=O)([O-])OC(C)CNC(=O)CC[C@@]\4([C@H](C5[C@]6([C@@]([C@@H](C(=N6)/C(=C\7/[C@@]([C@@H](C(=N7)/C=C\8/C([C@@H](C(=N8)/C(=C4\[N-]5)/C)CCC(=O)N)(C)C)CCC(=O)N)(C)CC(=O)N)/C)CCC(=O)N)(C)CC(=O)N)C)CC(=O)N)C)O.[CH2-]C1[C@@H]([C@@H]([C@H](O1)N2C=NC3=C(N=CN=C32)N)O)O.[Co+3]

> <PUBCHEM_CONNECTIVITY_SMILES>
CC1=CC2=C(C=C1C)N(C=N2)C3C(C(C(O3)CO)OP(=O)([O-])OC(C)CNC(=O)CCC4(C(C5C6(C(C(C(=N6)C(=C7C(C(C(=N7)C=C8C(C(C(=N8)C(=C4[N-]5)C)CCC(=O)N)(C)C)CCC(=O)N)(C)CC(=O)N)C)CCC(=O)N)(C)CC(=O)N)C)CC(=O)N)C)O.[CH2-]C1C(C(C(O1)N2C=NC3=C(N=CN=C32)N)O)O.[Co+3]

> <PUBCHEM_CACTVS_TPSA>
571

> <PUBCHEM_MONOISOTOPIC_WEIGHT>
1578.658339

> <PUBCHEM_TOTAL_CHARGE>
0

> <PUBCHEM_HEAVY_ATOM_COUNT>
109

> <PUBCHEM_ATOM_DEF_STEREO_COUNT>
13

> <PUBCHEM_ATOM_UDEF_STEREO_COUNT>
5

> <PUBCHEM_BOND_DEF_STEREO_COUNT>
3

> <PUBCHEM_BOND_UDEF_STEREO_COUNT>
0

> <PUBCHEM_ISOTOPIC_ATOM_COUNT>
0

> <PUBCHEM_COMPONENT_COUNT>
3

> <PUBCHEM_CACTVS_TAUTO_COUNT>
-1

> <PUBCHEM_NONSTANDARDBOND>
1  20  6
1  22  6
1  56  6

> <PUBCHEM_COORDINATE_TYPE>
1
5
255

> <PUBCHEM_BONDANNOTATIONS>
100  106  8
106  108  8
92  11  3
94  12  3
39  20  3
22  72  8
22  75  8
27  75  8
27  84  8
29  100  8
29  102  8
33  102  8
33  106  8
35  100  8
35  109  8
36  108  8
36  109  8
66  56  3
72  84  8
72  88  8
84  90  8
88  93  8
90  96  8
93  96  8
99  107  3

$$$$
6474320
  -OEChem-04182609202D

209217  0     1  0  0  0  0  0999 V2000
    8.9935    4.7323    0.0000 Co  0  1  0  0  0  0  0  0  0  0  0  0
    5.7014   -4.1235    0.0000 P   0  0  3  0  0  0  0  0  0  0  0  0
   13.7677    5.9999    0.0000 O   0  0  0  0  0  0  0  0  0  0  0  0
    8.6916    0.3736    0.0000 O   0  0  0  0  0  0  0  0  0  0  0  0
   11.3600    4.2927    0.0000 O   0  0  0  0  0  0  0  0  0  0  0  0
    8.8330   -0.7779    0.0000 O   0  0  0  0  0  0  0  0  0  0  0  0
   12.8864    8.9237    0.0000 O   0  0  0  0  0  0  0  0  0  0  0  0
    8.9941    3.2447    0.0000 O   0  0  0  0  0  0  0  0  0  0  0  0
   10.6298    1.8103    0.0000 O   0  0  0  0  0  0  0  0  0  0  0  0
   11.1780    8.9829    0.0000 O   0  0  0  0  0  0  0  0  0  0  0  0
    3.6618    2.7616    0.0000 O   0  0  0  0  0  0  0  0  0  0  0  0
    6.5104   -3.5357    0.0000 O   0  0  0  0  0  0  0  0  0  0  0  0
    6.7087   10.3733    0.0000 O   0  0  0  0  0  0  0  0  0  0  0  0
    4.8924   -4.7113    0.0000 O   0  0  0  0  0  0  0  0  0  0  0  0
    6.2892   -4.9325    0.0000 O   0  5  0  0  0  0  0  0  0  0  0  0
    5.1136   -3.3145    0.0000 O   0  0  0  0  0  0  0  0  0  0  0  0
    4.6605   -7.2885    0.0000 O   0  0  0  0  0  0  0  0  0  0  0  0
    6.7765   -5.7991    0.0000 O   0  0  0  0  0  0  0  0  0  0  0  0
    2.6065   -6.9101    0.0000 O   0  0  0  0  0  0  0  0  0  0  0  0
    9.0066    3.7324    0.0000 N   0  5  0  0  0  0  0  0  0  0  0  0
   10.4680    5.0651    0.0000 N   0  0  0  0  0  0  0  0  0  0  0  0
    7.5434    5.0651    0.0000 N   0  0  0  0  0  0  0  0  0  0  0  0
    8.9740    6.3979    0.0000 N   0  0  0  0  0  0  0  0  0  0  0  0
   14.6848    4.5305    0.0000 N   0  0  0  0  0  0  0  0  0  0  0  0
   10.2782   -0.3211    0.0000 N   0  0  0  0  0  0  0  0  0  0  0  0
    7.1104   -0.9589    0.0000 N   0  0  0  0  0  0  0  0  0  0  0  0
   14.1015    7.6894    0.0000 N   0  0  0  0  0  0  0  0  0  0  0  0
   12.4995    2.9227    0.0000 N   0  0  0  0  0  0  0  0  0  0  0  0
   10.2897   10.4698    0.0000 N   0  0  0  0  0  0  0  0  0  0  0  0
    2.6131    4.1400    0.0000 N   0  0  0  0  0  0  0  0  0  0  0  0
    8.1037   11.3999    0.0000 N   0  0  0  0  0  0  0  0  0  0  0  0
   14.1025    2.7782    0.0000 N   0  0  0  0  0  0  0  0  0  0  0  0
   12.1423    1.1353    0.0000 N   0  0  0  0  0  0  0  0  0  0  0  0
   13.5585    0.1381    0.0000 N   0  0  0  0  0  0  0  0  0  0  0  0
   15.1302    0.8660    0.0000 N   0  0  0  0  0  0  0  0  0  0  0  0
    6.3241   -7.9271    0.0000 N   0  0  0  0  0  0  0  0  0  0  0  0
    7.7193   -8.7294    0.0000 N   0  0  0  0  0  0  0  0  0  0  0  0
   11.0529    4.3499    0.0000 C   0  0  1  0  0  0  0  0  0  0  0  0
    9.7870    3.1474    0.0000 C   0  0  1  0  0  0  0  0  0  0  0  0
   11.9636    4.6106    0.0000 C   0  0  2  0  0  0  0  0  0  0  0  0
    9.4937    2.2057    0.0000 C   0  0  1  0  0  0  0  0  0  0  0  0
    8.5194    2.2057    0.0000 C   0  0  2  0  0  0  0  0  0  0  0  0
   11.9636    5.5848    0.0000 C   0  0  1  0  0  0  0  0  0  0  0  0
    8.2261    3.1148    0.0000 C   0  0  0  0  0  0  0  0  0  0  0  0
   11.0203    5.8455    0.0000 C   0  0  0  0  0  0  0  0  0  0  0  0
   10.8750    3.3658    0.0000 C   0  0  0  0  0  0  0  0  0  0  0  0
   12.9538    4.4709    0.0000 C   0  0  0  0  0  0  0  0  0  0  0  0
   12.1368    3.6257    0.0000 C   0  0  0  0  0  0  0  0  0  0  0  0
   10.0865    1.4003    0.0000 C   0  0  0  0  0  0  0  0  0  0  0  0
    8.6239    1.2112    0.0000 C   0  0  0  0  0  0  0  0  0  0  0  0
   12.6763    6.2863    0.0000 C   0  0  0  0  0  0  0  0  0  0  0  0
    7.6059    1.7990    0.0000 C   0  0  0  0  0  0  0  0  0  0  0  0
    7.2844    3.4081    0.0000 C   0  0  0  0  0  0  0  0  0  0  0  0
   10.7287    6.7546    0.0000 C   0  0  0  0  0  0  0  0  0  0  0  0
    7.8149    0.6234    0.0000 C   0  0  0  0  0  0  0  0  0  0  0  0
   13.8021    5.0004    0.0000 C   0  0  0  0  0  0  0  0  0  0  0  0
   12.4250    7.2543    0.0000 C   0  0  0  0  0  0  0  0  0  0  0  0
    6.9912    4.3173    0.0000 C   0  0  0  0  0  0  0  0  0  0  0  0
    9.6854    0.4843    0.0000 C   0  0  0  0  0  0  0  0  0  0  0  0
    9.7870    7.0480    0.0000 C   0  0  0  0  0  0  0  0  0  0  0  0
    9.4611    7.9571    0.0000 C   0  0  2  0  0  0  0  0  0  0  0  0
    6.0494    4.5780    0.0000 C   0  0  2  0  0  0  0  0  0  0  0  0
    6.0494    5.5522    0.0000 C   0  0  0  0  0  0  0  0  0  0  0  0
    6.6137    2.6664    0.0000 C   0  0  0  0  0  0  0  0  0  0  0  0
    9.8529    5.2436    0.0000 C   0  5  0  0  0  0  0  0  0  0  0  0
    8.4868    7.9571    0.0000 C   0  0  1  0  0  0  0  0  0  0  0  0
   11.4636    7.4328    0.0000 C   0  0  0  0  0  0  0  0  0  0  0  0
    6.9912    5.8129    0.0000 C   0  0  0  0  0  0  0  0  0  0  0  0
    8.1935    7.0154    0.0000 C   0  0  0  0  0  0  0  0  0  0  0  0
   10.3642    4.3842    0.0000 C   0  0  2  0  0  0  0  0  0  0  0  0
    7.9194   -0.3711    0.0000 C   0  0  0  0  0  0  0  0  0  0  0  0
    5.2536    3.9725    0.0000 C   0  0  0  0  0  0  0  0  0  0  0  0
    9.4462    8.9570    0.0000 C   0  0  0  0  0  0  0  0  0  0  0  0
   13.1377    7.9558    0.0000 C   0  0  0  0  0  0  0  0  0  0  0  0
   10.4075    8.2803    0.0000 C   0  0  0  0  0  0  0  0  0  0  0  0
    7.2519    6.7546    0.0000 C   0  0  0  0  0  0  0  0  0  0  0  0
    7.8941    8.7625    0.0000 C   0  0  0  0  0  0  0  0  0  0  0  0
    5.0497    5.5743    0.0000 C   0  0  0  0  0  0  0  0  0  0  0  0
    5.7615    6.5098    0.0000 C   0  0  0  0  0  0  0  0  0  0  0  0
    9.9694    3.4654    0.0000 C   0  0  1  0  0  0  0  0  0  0  0  0
   10.7213    2.8061    0.0000 C   0  0  1  0  0  0  0  0  0  0  0  0
    4.3313    4.3590    0.0000 C   0  0  0  0  0  0  0  0  0  0  0  0
   11.5807    3.3174    0.0000 C   0  0  2  0  0  0  0  0  0  0  0  0
    8.2953    9.6785    0.0000 C   0  0  0  0  0  0  0  0  0  0  0  0
   10.3046    9.4699    0.0000 C   0  0  0  0  0  0  0  0  0  0  0  0
    7.2149   -1.9534    0.0000 C   0  0  0  0  0  0  0  0  0  0  0  0
    3.5354    3.7535    0.0000 C   0  0  0  0  0  0  0  0  0  0  0  0
    7.7025   10.4839    0.0000 C   0  0  0  0  0  0  0  0  0  0  0  0
    6.4059   -2.5412    0.0000 C   0  0  1  0  0  0  0  0  0  0  0  0
   12.7180    1.9529    0.0000 C   0  0  0  0  0  0  0  0  0  0  0  0
   13.3534    3.4317    0.0000 C   0  0  0  0  0  0  0  0  0  0  0  0
    5.4924   -2.1345    0.0000 C   0  0  0  0  0  0  0  0  0  0  0  0
   13.7140    1.8631    0.0000 C   0  0  0  0  0  0  0  0  0  0  0  0
   14.1343    0.9557    0.0000 C   0  0  0  0  0  0  0  0  0  0  0  0
   12.5626    0.2278    0.0000 C   0  0  0  0  0  0  0  0  0  0  0  0
    4.9969   -5.7058    0.0000 C   0  0  1  0  0  0  0  0  0  0  0  0
    5.8629   -6.2058    0.0000 C   0  0  2  0  0  0  0  0  0  0  0  0
    4.2537   -6.3749    0.0000 C   0  0  1  0  0  0  0  0  0  0  0  0
    5.6550   -7.1840    0.0000 C   0  0  2  0  0  0  0  0  0  0  0  0
    3.2756   -6.1670    0.0000 C   0  0  0  0  0  0  0  0  0  0  0  0
    6.1166   -8.8993    0.0000 C   0  0  0  0  0  0  0  0  0  0  0  0
    7.3127   -7.8224    0.0000 C   0  0  0  0  0  0  0  0  0  0  0  0
    6.9835   -9.3978    0.0000 C   0  0  0  0  0  0  0  0  0  0  0  0
    5.2514   -9.4008    0.0000 C   0  0  0  0  0  0  0  0  0  0  0  0
    6.9852  -10.3978    0.0000 C   0  0  0  0  0  0  0  0  0  0  0  0
    5.2531  -10.4008    0.0000 C   0  0  0  0  0  0  0  0  0  0  0  0
    6.1200  -10.8993    0.0000 C   0  0  0  0  0  0  0  0  0  0  0  0
    4.3880  -10.9023    0.0000 C   0  0  0  0  0  0  0  0  0  0  0  0
    6.1217  -11.8993    0.0000 C   0  0  0  0  0  0  0  0  0  0  0  0
   10.1875    2.3977    0.0000 H   0  0  0  0  0  0  0  0  0  0  0  0
    9.2140    1.6524    0.0000 H   0  0  0  0  0  0  0  0  0  0  0  0
   12.5355    5.3453    0.0000 H   0  0  0  0  0  0  0  0  0  0  0  0
   10.2649    3.4762    0.0000 H   0  0  0  0  0  0  0  0  0  0  0  0
   10.7646    2.7557    0.0000 H   0  0  0  0  0  0  0  0  0  0  0  0
   11.4851    3.2555    0.0000 H   0  0  0  0  0  0  0  0  0  0  0  0
   12.6948    3.9076    0.0000 H   0  0  0  0  0  0  0  0  0  0  0  0
   13.4192    4.0612    0.0000 H   0  0  0  0  0  0  0  0  0  0  0  0
   11.5262    3.5183    0.0000 H   0  0  0  0  0  0  0  0  0  0  0  0
   12.2442    3.0151    0.0000 H   0  0  0  0  0  0  0  0  0  0  0  0
   12.7474    3.7331    0.0000 H   0  0  0  0  0  0  0  0  0  0  0  0
   10.6027    1.0568    0.0000 H   0  0  0  0  0  0  0  0  0  0  0  0
   10.5144    1.8490    0.0000 H   0  0  0  0  0  0  0  0  0  0  0  0
    8.8957    0.6539    0.0000 H   0  0  0  0  0  0  0  0  0  0  0  0
    9.2199    1.3821    0.0000 H   0  0  0  0  0  0  0  0  0  0  0  0
   13.0279    5.7757    0.0000 H   0  0  0  0  0  0  0  0  0  0  0  0
   13.2402    6.5440    0.0000 H   0  0  0  0  0  0  0  0  0  0  0  0
    7.3537    2.3654    0.0000 H   0  0  0  0  0  0  0  0  0  0  0  0
    7.0395    1.5468    0.0000 H   0  0  0  0  0  0  0  0  0  0  0  0
    7.8580    1.2326    0.0000 H   0  0  0  0  0  0  0  0  0  0  0  0
    7.5431    1.1807    0.0000 H   0  0  0  0  0  0  0  0  0  0  0  0
    7.2189    0.4525    0.0000 H   0  0  0  0  0  0  0  0  0  0  0  0
   12.0734    7.7649    0.0000 H   0  0  0  0  0  0  0  0  0  0  0  0
   11.8611    6.9967    0.0000 H   0  0  0  0  0  0  0  0  0  0  0  0
    6.1666    3.9691    0.0000 H   0  0  0  0  0  0  0  0  0  0  0  0
    6.1538    3.0823    0.0000 H   0  0  0  0  0  0  0  0  0  0  0  0
    6.1978    2.2066    0.0000 H   0  0  0  0  0  0  0  0  0  0  0  0
    7.0735    2.2506    0.0000 H   0  0  0  0  0  0  0  0  0  0  0  0
    9.5359    5.7764    0.0000 H   0  0  0  0  0  0  0  0  0  0  0  0
   10.1558    5.7846    0.0000 H   0  0  0  0  0  0  0  0  0  0  0  0
    7.8754    7.8545    0.0000 H   0  0  0  0  0  0  0  0  0  0  0  0
   11.8840    6.9772    0.0000 H   0  0  0  0  0  0  0  0  0  0  0  0
   11.9192    7.8533    0.0000 H   0  0  0  0  0  0  0  0  0  0  0  0
   11.0431    7.8885    0.0000 H   0  0  0  0  0  0  0  0  0  0  0  0
   10.6950    4.9086    0.0000 H   0  0  0  0  0  0  0  0  0  0  0  0
    4.9183    3.4510    0.0000 H   0  0  0  0  0  0  0  0  0  0  0  0
    5.7089    3.5517    0.0000 H   0  0  0  0  0  0  0  0  0  0  0  0
    9.2254    9.5363    0.0000 H   0  0  0  0  0  0  0  0  0  0  0  0
    8.8373    8.8402    0.0000 H   0  0  0  0  0  0  0  0  0  0  0  0
   10.6079    7.6936    0.0000 H   0  0  0  0  0  0  0  0  0  0  0  0
   10.9942    8.4807    0.0000 H   0  0  0  0  0  0  0  0  0  0  0  0
   10.2071    8.8670    0.0000 H   0  0  0  0  0  0  0  0  0  0  0  0
    6.8171    7.1967    0.0000 H   0  0  0  0  0  0  0  0  0  0  0  0
   15.2108    4.8588    0.0000 H   0  0  0  0  0  0  0  0  0  0  0  0
   14.7062    3.9109    0.0000 H   0  0  0  0  0  0  0  0  0  0  0  0
    7.3780    9.1060    0.0000 H   0  0  0  0  0  0  0  0  0  0  0  0
    7.4661    8.3139    0.0000 H   0  0  0  0  0  0  0  0  0  0  0  0
   10.0295   -0.8890    0.0000 H   0  0  0  0  0  0  0  0  0  0  0  0
   10.8944   -0.2525    0.0000 H   0  0  0  0  0  0  0  0  0  0  0  0
    5.0633    6.1941    0.0000 H   0  0  0  0  0  0  0  0  0  0  0  0
    4.4298    5.5879    0.0000 H   0  0  0  0  0  0  0  0  0  0  0  0
    5.0360    4.9544    0.0000 H   0  0  0  0  0  0  0  0  0  0  0  0
    6.3552    6.6884    0.0000 H   0  0  0  0  0  0  0  0  0  0  0  0
    5.5829    7.1036    0.0000 H   0  0  0  0  0  0  0  0  0  0  0  0
    5.1677    6.3313    0.0000 H   0  0  0  0  0  0  0  0  0  0  0  0
    9.5730    3.9421    0.0000 H   0  0  0  0  0  0  0  0  0  0  0  0
   11.2456    2.4753    0.0000 H   0  0  0  0  0  0  0  0  0  0  0  0
    4.6666    4.8805    0.0000 H   0  0  0  0  0  0  0  0  0  0  0  0
    3.8759    4.7798    0.0000 H   0  0  0  0  0  0  0  0  0  0  0  0
   12.0574    3.7139    0.0000 H   0  0  0  0  0  0  0  0  0  0  0  0
    6.5440   -0.7067    0.0000 H   0  0  0  0  0  0  0  0  0  0  0  0
    8.8114    9.3349    0.0000 H   0  0  0  0  0  0  0  0  0  0  0  0
    8.7232   10.1271    0.0000 H   0  0  0  0  0  0  0  0  0  0  0  0
   14.5434    8.1244    0.0000 H   0  0  0  0  0  0  0  0  0  0  0  0
   14.2573    7.0893    0.0000 H   0  0  0  0  0  0  0  0  0  0  0  0
    7.4867   -2.5107    0.0000 H   0  0  0  0  0  0  0  0  0  0  0  0
    7.8109   -1.7825    0.0000 H   0  0  0  0  0  0  0  0  0  0  0  0
    8.9159    2.6297    0.0000 H   0  0  0  0  0  0  0  0  0  0  0  0
   11.1361    1.4525    0.0000 H   0  0  0  0  0  0  0  0  0  0  0  0
   10.8219   10.7878    0.0000 H   0  0  0  0  0  0  0  0  0  0  0  0
    9.7482   10.7717    0.0000 H   0  0  0  0  0  0  0  0  0  0  0  0
    5.9043   -2.9056    0.0000 H   0  0  0  0  0  0  0  0  0  0  0  0
   13.4090    4.0492    0.0000 H   0  0  0  0  0  0  0  0  0  0  0  0
    2.1197    3.7646    0.0000 H   0  0  0  0  0  0  0  0  0  0  0  0
    2.5347    4.7551    0.0000 H   0  0  0  0  0  0  0  0  0  0  0  0
    5.7445   -1.5681    0.0000 H   0  0  0  0  0  0  0  0  0  0  0  0
    4.9260   -1.8823    0.0000 H   0  0  0  0  0  0  0  0  0  0  0  0
    5.2402   -2.7009    0.0000 H   0  0  0  0  0  0  0  0  0  0  0  0
    7.7362   11.8993    0.0000 H   0  0  0  0  0  0  0  0  0  0  0  0
    8.7199   11.4685    0.0000 H   0  0  0  0  0  0  0  0  0  0  0  0
   12.2056   -0.2791    0.0000 H   0  0  0  0  0  0  0  0  0  0  0  0
   15.3908    0.3034    0.0000 H   0  0  0  0  0  0  0  0  0  0  0  0
   15.4872    1.3729    0.0000 H   0  0  0  0  0  0  0  0  0  0  0  0
    4.4181   -5.4836    0.0000 H   0  0  0  0  0  0  0  0  0  0  0  0
    6.3447   -6.5960    0.0000 H   0  0  0  0  0  0  0  0  0  0  0  0
    3.8636   -6.8568    0.0000 H   0  0  0  0  0  0  0  0  0  0  0  0
    5.4328   -7.7628    0.0000 H   0  0  0  0  0  0  0  0  0  0  0  0
    3.5079   -5.5922    0.0000 H   0  0  0  0  0  0  0  0  0  0  0  0
    2.7498   -5.8385    0.0000 H   0  0  0  0  0  0  0  0  0  0  0  0
    7.2780   -6.1635    0.0000 H   0  0  0  0  0  0  0  0  0  0  0  0
    7.6217   -7.2849    0.0000 H   0  0  0  0  0  0  0  0  0  0  0  0
    2.0000   -6.7812    0.0000 H   0  0  0  0  0  0  0  0  0  0  0  0
    4.7139   -9.0917    0.0000 H   0  0  0  0  0  0  0  0  0  0  0  0
    7.5227  -10.7069    0.0000 H   0  0  0  0  0  0  0  0  0  0  0  0
    4.0770  -10.3659    0.0000 H   0  0  0  0  0  0  0  0  0  0  0  0
    3.8516  -11.2132    0.0000 H   0  0  0  0  0  0  0  0  0  0  0  0
    4.6989  -11.4387    0.0000 H   0  0  0  0  0  0  0  0  0  0  0  0
    5.5017  -11.9003    0.0000 H   0  0  0  0  0  0  0  0  0  0  0  0
    6.1228  -12.5193    0.0000 H   0  0  0  0  0  0  0  0  0  0  0  0
    6.7417  -11.8982    0.0000 H   0  0  0  0  0  0  0  0  0  0  0  0
  2 12  1  0  0  0  0
  2 14  1  0  0  0  0
  2 15  1  0  0  0  0
  2 16  2  0  0  0  0
  3 56  2  0  0  0  0
  4 59  2  0  0  0  0
  5 70  1  0  0  0  0
  5 83  1  0  0  0  0
  6 71  2  0  0  0  0
  7 74  2  0  0  0  0
 80  8  1  1  0  0  0
  8177  1  0  0  0  0
 81  9  1  1  0  0  0
  9178  1  0  0  0  0
 10 85  2  0  0  0  0
 11 87  2  0  0  0  0
 89 12  1  6  0  0  0
 13 88  2  0  0  0  0
 96 14  1  1  0  0  0
 17 98  1  0  0  0  0
 17 99  1  0  0  0  0
 97 18  1  1  0  0  0
 18199  1  0  0  0  0
 19100  1  0  0  0  0
 19201  1  0  0  0  0
 20 39  1  0  0  0  0
 20 44  1  0  0  0  0
 21 38  1  0  0  0  0
 21 45  2  0  0  0  0
 22 58  2  0  0  0  0
 22 68  1  0  0  0  0
 23 60  1  0  0  0  0
 23 69  2  0  0  0  0
 24 56  1  0  0  0  0
 24153  1  0  0  0  0
 24154  1  0  0  0  0
 25 59  1  0  0  0  0
 25157  1  0  0  0  0
 25158  1  0  0  0  0
 26 71  1  0  0  0  0
 26 86  1  0  0  0  0
 26170  1  0  0  0  0
 27 74  1  0  0  0  0
 27173  1  0  0  0  0
 27174  1  0  0  0  0
 83 28  1  6  0  0  0
 28 90  1  0  0  0  0
 28 91  1  0  0  0  0
 29 85  1  0  0  0  0
 29179  1  0  0  0  0
 29180  1  0  0  0  0
 30 87  1  0  0  0  0
 30183  1  0  0  0  0
 30184  1  0  0  0  0
 31 88  1  0  0  0  0
 31188  1  0  0  0  0
 31189  1  0  0  0  0
 32 91  2  0  0  0  0
 32 93  1  0  0  0  0
 33 90  2  0  0  0  0
 33 95  1  0  0  0  0
 34 94  1  0  0  0  0
 34 95  2  0  0  0  0
 35 94  1  0  0  0  0
 35191  1  0  0  0  0
 35192  1  0  0  0  0
 99 36  1  1  0  0  0
 36101  1  0  0  0  0
 36102  1  0  0  0  0
 37102  2  0  0  0  0
 37103  1  0  0  0  0
 38 39  1  0  0  0  0
 38 40  1  0  0  0  0
 38 46  1  1  0  0  0
 39 41  1  0  0  0  0
 39110  1  6  0  0  0
 40 43  1  0  0  0  0
 40 47  1  0  0  0  0
 40 48  1  1  0  0  0
 41 42  1  0  0  0  0
 41 49  1  6  0  0  0
 41111  1  0  0  0  0
 42 44  1  0  0  0  0
 42 50  1  0  0  0  0
 42 52  1  6  0  0  0
 43 45  1  0  0  0  0
 43 51  1  1  0  0  0
 43112  1  0  0  0  0
 44 53  2  0  0  0  0
 45 54  1  0  0  0  0
 46113  1  0  0  0  0
 46114  1  0  0  0  0
 46115  1  0  0  0  0
 47 56  1  0  0  0  0
 47116  1  0  0  0  0
 47117  1  0  0  0  0
 48118  1  0  0  0  0
 48119  1  0  0  0  0
 48120  1  0  0  0  0
 49 59  1  0  0  0  0
 49121  1  0  0  0  0
 49122  1  0  0  0  0
 50 55  1  0  0  0  0
 50123  1  0  0  0  0
 50124  1  0  0  0  0
 51 57  1  0  0  0  0
 51125  1  0  0  0  0
 51126  1  0  0  0  0
 52127  1  0  0  0  0
 52128  1  0  0  0  0
 52129  1  0  0  0  0
 53 58  1  0  0  0  0
 53 64  1  0  0  0  0
 54 60  2  0  0  0  0
 54 67  1  0  0  0  0
 55 71  1  0  0  0  0
 55130  1  0  0  0  0
 55131  1  0  0  0  0
 57 74  1  0  0  0  0
 57132  1  0  0  0  0
 57133  1  0  0  0  0
 58 62  1  0  0  0  0
 60 61  1  0  0  0  0
 61 66  1  0  0  0  0
 61 73  1  0  0  0  0
 61 75  1  1  0  0  0
 62 63  1  0  0  0  0
 62 72  1  1  0  0  0
 62134  1  0  0  0  0
 63 68  1  0  0  0  0
 63 78  1  0  0  0  0
 63 79  1  0  0  0  0
 64135  1  0  0  0  0
 64136  1  0  0  0  0
 64137  1  0  0  0  0
 70 65  1  1  0  0  0
 65138  1  0  0  0  0
 65139  1  0  0  0  0
 66 69  1  0  0  0  0
 66 77  1  1  0  0  0
 66140  1  0  0  0  0
 67141  1  0  0  0  0
 67142  1  0  0  0  0
 67143  1  0  0  0  0
 68 76  2  0  0  0  0
 69 76  1  0  0  0  0
 70 80  1  0  0  0  0
 70144  1  0  0  0  0
 72 82  1  0  0  0  0
 72145  1  0  0  0  0
 72146  1  0  0  0  0
 73 85  1  0  0  0  0
 73147  1  0  0  0  0
 73148  1  0  0  0  0
 75149  1  0  0  0  0
 75150  1  0  0  0  0
 75151  1  0  0  0  0
 76152  1  0  0  0  0
 77 84  1  0  0  0  0
 77155  1  0  0  0  0
 77156  1  0  0  0  0
 78159  1  0  0  0  0
 78160  1  0  0  0  0
 78161  1  0  0  0  0
 79162  1  0  0  0  0
 79163  1  0  0  0  0
 79164  1  0  0  0  0
 80 81  1  0  0  0  0
 80165  1  0  0  0  0
 81 83  1  0  0  0  0
 81166  1  0  0  0  0
 82 87  1  0  0  0  0
 82167  1  0  0  0  0
 82168  1  0  0  0  0
 83169  1  0  0  0  0
 84 88  1  0  0  0  0
 84171  1  0  0  0  0
 84172  1  0  0  0  0
 86 89  1  0  0  0  0
 86175  1  0  0  0  0
 86176  1  0  0  0  0
 89 92  1  0  0  0  0
 89181  1  0  0  0  0
 90 93  1  0  0  0  0
 91182  1  0  0  0  0
 92185  1  0  0  0  0
 92186  1  0  0  0  0
 92187  1  0  0  0  0
 93 94  2  0  0  0  0
 95190  1  0  0  0  0
 96 97  1  0  0  0  0
 96 98  1  0  0  0  0
 96193  1  0  0  0  0
 97 99  1  0  0  0  0
 97194  1  0  0  0  0
 98100  1  6  0  0  0
 98195  1  0  0  0  0
 99196  1  0  0  0  0
100197  1  0  0  0  0
100198  1  0  0  0  0
101103  2  0  0  0  0
101104  1  0  0  0  0
102200  1  0  0  0  0
103105  1  0  0  0  0
104106  2  0  0  0  0
104202  1  0  0  0  0
105107  2  0  0  0  0
105203  1  0  0  0  0
106107  1  0  0  0  0
106108  1  0  0  0  0
107109  1  0  0  0  0
108204  1  0  0  0  0
108205  1  0  0  0  0
108206  1  0  0  0  0
109207  1  0  0  0  0
109208  1  0  0  0  0
109209  1  0  0  0  0
M  CHG  4   1   3  15  -1  20  -1  65  -1
M  END
> <PUBCHEM_COMPOUND_CID>
6474320

> <PUBCHEM_COMPOUND_CANONICALIZED>
1

> <PUBCHEM_CACTVS_COMPLEXITY>
3730

> <PUBCHEM_CACTVS_HBOND_ACCEPTOR>
27

> <PUBCHEM_CACTVS_HBOND_DONOR>
12

> <PUBCHEM_CACTVS_ROTATABLE_BOND>
27

> <PUBCHEM_CACTVS_SUBSKEYS>
AAADcfB//gIAAAAQAAAAAAAAAAAAAWLFiRI8QAAAAAAAAFgB/gAAHgAQCCAAD7zhnwY38L/MFxCoQydzdICCgC0xEqAB2KE4dJiLeLLA2dGeZAhvlgLbyCf8ucKfiAAAQAAQACAQAACAACAAQAAAAAAAAA==

> <PUBCHEM_IUPAC_OPENEYE_NAME>
cobaltic;(2S,3S,4R,5R)-2-(6-aminopurin-9-yl)-5-methanidyl-tetrahydrofuran-3,4-diol;[(2R,3S,4R,5S)-5-(5,6-dimethylbenzimidazol-1-yl)-4-hydroxy-2-(hydroxymethyl)tetrahydrofuran-3-yl] [(1R)-1-methyl-2-[3-[(1R,2R,3R,4Z,7S,9Z,12S,13S,14Z,17S,18S,19R)-2,13,18-tris(2-amino-2-oxo-ethyl)-7,12,17-tris(3-amino-3-oxo-propyl)-3,5,8,8,13,15,18,19-octamethyl-2,7,12,17-tetrahydro-1H-corrin-21-id-3-yl]propanoylamino]ethyl] phosphate

> <PUBCHEM_IUPAC_CAS_NAME>
(2S,3S,4R,5R)-2-(6-aminopurin-9-yl)-5-methanidyloxolane-3,4-diol;cobalt(3+);[(2R,3S,4R,5S)-5-(5,6-dimethyl-1-benzimidazolyl)-4-hydroxy-2-(hydroxymethyl)-3-oxolanyl] [(2R)-1-[[1-oxo-3-[(1R,2R,3R,4Z,7S,9Z,12S,13S,14Z,17S,18S,19R)-2,13,18-tris(2-amino-2-oxoethyl)-7,12,17-tris(3-amino-3-oxopropyl)-3,5,8,8,13,15,18,19-octamethyl-2,7,12,17-tetrahydro-1H-corrin-21-id-3-yl]propyl]amino]propan-2-yl] phosphate

> <PUBCHEM_IUPAC_NAME_MARKUP>
(2<I>S</I>,3<I>S</I>,4<I>R</I>,5<I>R</I>)-2-(6-aminopurin-9-yl)-5-methanidyloxolane-3,4-diol;cobalt(3+);[(2<I>R</I>,3<I>S</I>,4<I>R</I>,5<I>S</I>)-5-(5,6-dimethylbenzimidazol-1-yl)-4-hydroxy-2-(hydroxymethyl)oxolan-3-yl] [(2<I>R</I>)-1-[3-[(1<I>R</I>,2<I>R</I>,3<I>R</I>,4<I>Z</I>,7<I>S</I>,9<I>Z</I>,12<I>S</I>,13<I>S</I>,14<I>Z</I>,17<I>S</I>,18<I>S</I>,19<I>R</I>)-2,13,18-tris(2-amino-2-oxoethyl)-7,12,17-tris(3-amino-3-oxopropyl)-3,5,8,8,13,15,18,19-octamethyl-2,7,12,17-tetrahydro-1<I>H</I>-corrin-21-id-3-yl]propanoylamino]propan-2-yl] phosphate

> <PUBCHEM_IUPAC_NAME>
(2S,3S,4R,5R)-2-(6-aminopurin-9-yl)-5-methanidyloxolane-3,4-diol;cobalt(3+);[(2R,3S,4R,5S)-5-(5,6-dimethylbenzimidazol-1-yl)-4-hydroxy-2-(hydroxymethyl)oxolan-3-yl] [(2R)-1-[3-[(1R,2R,3R,4Z,7S,9Z,12S,13S,14Z,17S,18S,19R)-2,13,18-tris(2-amino-2-oxoethyl)-7,12,17-tris(3-amino-3-oxopropyl)-3,5,8,8,13,15,18,19-octamethyl-2,7,12,17-tetrahydro-1H-corrin-21-id-3-yl]propanoylamino]propan-2-yl] phosphate

> <PUBCHEM_IUPAC_SYSTEMATIC_NAME>
(2S,3S,4R,5R)-2-(6-aminopurin-9-yl)-5-methanidyl-oxolane-3,4-diol;cobalt(3+);[(2R,3S,4R,5S)-5-(5,6-dimethylbenzimidazol-1-yl)-2-(hydroxymethyl)-4-oxidanyl-oxolan-3-yl] [(2R)-1-[3-[(1R,2R,3R,4Z,7S,9Z,12S,13S,14Z,17S,18S,19R)-2,13,18-tris(2-azanyl-2-oxidanylidene-ethyl)-7,12,17-tris(3-azanyl-3-oxidanylidene-propyl)-3,5,8,8,13,15,18,19-octamethyl-2,7,12,17-tetrahydro-1H-corrin-21-id-3-yl]propanoylamino]propan-2-yl] phosphate

> <PUBCHEM_IUPAC_TRADITIONAL_NAME>
cobaltic;(2S,3S,4R,5R)-2-adenin-9-yl-5-methanidyl-tetrahydrofuran-3,4-diol;[(2R,3S,4R,5S)-5-(5,6-dimethylbenzimidazol-1-yl)-4-hydroxy-2-methylol-tetrahydrofuran-3-yl] [(1R)-1-methyl-2-[3-[(1R,2R,3R,4Z,7S,9Z,12S,13S,14Z,17S,18S,19R)-2,13,18-tris(2-amino-2-keto-ethyl)-7,12,17-tris(3-amino-3-keto-propyl)-3,5,8,8,13,15,18,19-octamethyl-2,7,12,17-tetrahydro-1H-corrin-21-id-3-yl]propanoylamino]ethyl] phosphate

> <PUBCHEM_IUPAC_INCHI>
InChI=1S/C62H90N13O14P.C10H12N5O3.Co/c1-29-20-39-40(21-30(29)2)75(28-70-39)57-52(84)53(41(27-76)87-57)89-90(85,86)88-31(3)26-69-49(83)18-19-59(8)37(22-46(66)80)56-62(11)61(10,25-48(68)82)36(14-17-45(65)79)51(74-62)33(5)55-60(9,24-47(67)81)34(12-15-43(63)77)38(71-55)23-42-58(6,7)35(13-16-44(64)78)50(72-42)32(4)54(59)73-56;1-4-6(16)7(17)10(18-4)15-3-14-5-8(11)12-2-13-9(5)15;/h20-21,23,28,31,34-37,41,52-53,56-57,76,84H,12-19,22,24-27H2,1-11H3,(H15,63,64,65,66,67,68,69,71,72,73,74,77,78,79,80,81,82,83,85,86);2-4,6-7,10,16-17H,1H2,(H2,11,12,13);/q;-1;+3/p-2/t31-,34-,35-,36-,37+,41-,52-,53-,56-,57+,59-,60+,61+,62+;4-,6+,7+,10+;/m11./s1

> <PUBCHEM_IUPAC_INCHIKEY>
OAJLVMGLJZXSGX-SLAFOUTOSA-L

> <PUBCHEM_EXACT_MASS>
1578.658339

> <PUBCHEM_MOLECULAR_FORMULA>
C72H100CoN18O17P

> <PUBCHEM_MOLECULAR_WEIGHT>
1579.6

> <PUBCHEM_SMILES>
CC1=CC2=C(C=C1C)N(C=N2)[C@@H]3[C@@H]([C@@H]([C@H](O3)CO)OP(=O)([O-])O[C@H](C)CNC(=O)CC[C@@]\4([C@H]([C@@H]5[C@]6([C@@]([C@@H](C(=N6)/C(=C\7/[C@@]([C@@H](C(=N7)/C=C\8/C([C@@H](C(=N8)/C(=C4\[N-]5)/C)CCC(=O)N)(C)C)CCC(=O)N)(C)CC(=O)N)/C)CCC(=O)N)(C)CC(=O)N)C)CC(=O)N)C)O.[CH2-][C@@H]1[C@@H]([C@@H]([C@H](O1)N2C=NC3=C(N=CN=C32)N)O)O.[Co+3]

> <PUBCHEM_CONNECTIVITY_SMILES>
CC1=CC2=C(C=C1C)N(C=N2)C3C(C(C(O3)CO)OP(=O)([O-])OC(C)CNC(=O)CCC4(C(C5C6(C(C(C(=N6)C(=C7C(C(C(=N7)C=C8C(C(C(=N8)C(=C4[N-]5)C)CCC(=O)N)(C)C)CCC(=O)N)(C)CC(=O)N)C)CCC(=O)N)(C)CC(=O)N)C)CC(=O)N)C)O.[CH2-]C1C(C(C(O1)N2C=NC3=C(N=CN=C32)N)O)O.[Co+3]

> <PUBCHEM_CACTVS_TPSA>
571

> <PUBCHEM_MONOISOTOPIC_WEIGHT>
1578.658339

> <PUBCHEM_TOTAL_CHARGE>
0

> <PUBCHEM_HEAVY_ATOM_COUNT>
109

> <PUBCHEM_ATOM_DEF_STEREO_COUNT>
18

> <PUBCHEM_ATOM_UDEF_STEREO_COUNT>
0

> <PUBCHEM_BOND_DEF_STEREO_COUNT>
3

> <PUBCHEM_BOND_UDEF_STEREO_COUNT>
0

> <PUBCHEM_ISOTOPIC_ATOM_COUNT>
0

> <PUBCHEM_COMPONENT_COUNT>
3

> <PUBCHEM_CACTVS_TAUTO_COUNT>
-1

> <PUBCHEM_NONSTANDARDBOND>
1  20  6
1  65  6

> <PUBCHEM_COORDINATE_TYPE>
1
5
255

> <PUBCHEM_BONDANNOTATIONS>
101  103  8
101  104  8
103  105  8
104  106  8
105  107  8
106  107  8
89  12  6
96  14  5
97  18  5
83  28  6
28  90  8
28  91  8
32  91  8
32  93  8
33  90  8
33  95  8
34  94  8
34  95  8
36  101  8
36  102  8
99  36  5
37  102  8
37  103  8
38  46  5
39  110  6
40  48  5
41  49  6
42  52  6
43  51  5
61  75  5
62  72  5
70  65  5
66  77  5
80  8  5
81  9  5
90  93  8
93  94  8
98  100  6

$$$$
24892716
  -OEChem-04182609202D

209217  0     1  0  0  0  0  0999 V2000
    8.8554   -0.3103    0.0000 Co  0  1  0  0  0  0  0  0  0  0  0  0
   17.7988   -2.2894    0.0000 P   0  0  3  0  0  0  0  0  0  0  0  0
   10.6188   -4.1242    0.0000 O   0  0  0  0  0  0  0  0  0  0  0  0
   10.8657   -2.6705    0.0000 O   0  0  0  0  0  0  0  0  0  0  0  0
    9.2436    2.0652    0.0000 O   0  0  0  0  0  0  0  0  0  0  0  0
   14.3172    0.6902    0.0000 O   0  0  0  0  0  0  0  0  0  0  0  0
    4.9063   -4.8670    0.0000 O   0  0  0  0  0  0  0  0  0  0  0  0
   10.5075   -0.2207    0.0000 O   0  0  0  0  0  0  0  0  0  0  0  0
   11.7050    1.7344    0.0000 O   0  0  0  0  0  0  0  0  0  0  0  0
    4.4747   -2.5164    0.0000 O   0  0  0  0  0  0  0  0  0  0  0  0
    7.2782    4.4968    0.0000 O   0  0  0  0  0  0  0  0  0  0  0  0
   17.1756   -1.5073    0.0000 O   0  0  0  0  0  0  0  0  0  0  0  0
    2.0000    0.6495    0.0000 O   0  0  0  0  0  0  0  0  0  0  0  0
   18.4220   -3.0714    0.0000 O   0  0  0  0  0  0  0  0  0  0  0  0
   18.5809   -1.6662    0.0000 O   0  5  0  0  0  0  0  0  0  0  0  0
   17.0168   -2.9126    0.0000 O   0  0  0  0  0  0  0  0  0  0  0  0
   21.0070   -3.1884    0.0000 O   0  0  0  0  0  0  0  0  0  0  0  0
   19.4249   -1.1408    0.0000 O   0  0  0  0  0  0  0  0  0  0  0  0
   20.7205   -5.2572    0.0000 O   0  0  0  0  0  0  0  0  0  0  0  0
    9.8549   -0.2755    0.0000 N   0  5  0  0  0  0  0  0  0  0  0  0
    8.3934   -1.6083    0.0000 N   0  0  0  0  0  0  0  0  0  0  0  0
    8.3608    1.0572    0.0000 N   0  0  0  0  0  0  0  0  0  0  0  0
    6.9303   -0.2755    0.0000 N   0  0  0  0  0  0  0  0  0  0  0  0
    9.7621   -5.6296    0.0000 N   0  0  0  0  0  0  0  0  0  0  0  0
   12.5461   -3.0903    0.0000 N   0  0  0  0  0  0  0  0  0  0  0  0
   14.5747   -1.0226    0.0000 N   0  0  0  0  0  0  0  0  0  0  0  0
    6.4063   -5.7330    0.0000 N   0  0  0  0  0  0  0  0  0  0  0  0
   10.5886    3.2341    0.0000 N   0  0  0  0  0  0  0  0  0  0  0  0
    2.9560   -1.6836    0.0000 N   0  0  0  0  0  0  0  0  0  0  0  0
    8.2752    5.9131    0.0000 N   0  0  0  0  0  0  0  0  0  0  0  0
    3.0487    2.0280    0.0000 N   0  0  0  0  0  0  0  0  0  0  0  0
   10.6982    4.8399    0.0000 N   0  0  0  0  0  0  0  0  0  0  0  0
   12.3833    2.9159    0.0000 N   0  0  0  0  0  0  0  0  0  0  0  0
   13.3495    4.3534    0.0000 N   0  0  0  0  0  0  0  0  0  0  0  0
   12.5877    5.9089    0.0000 N   0  0  0  0  0  0  0  0  0  0  0  0
   21.5710   -1.4980    0.0000 N   0  0  0  0  0  0  0  0  0  0  0  0
   22.3104   -0.0685    0.0000 N   0  0  0  0  0  0  0  0  0  0  0  0
    9.1738   -2.1932    0.0000 C   0  0  1  0  0  0  0  0  0  0  0  0
   10.4398   -0.9908    0.0000 C   0  0  3  0  0  0  0  0  0  0  0  0
    8.8806   -3.1350    0.0000 C   0  0  2  0  0  0  0  0  0  0  0  0
   11.3505   -0.7301    0.0000 C   0  0  1  0  0  0  0  0  0  0  0  0
   11.3505    0.2441    0.0000 C   0  0  2  0  0  0  0  0  0  0  0  0
    7.9063   -3.1350    0.0000 C   0  0  1  0  0  0  0  0  0  0  0  0
   10.4072    0.5049    0.0000 C   0  0  0  0  0  0  0  0  0  0  0  0
    7.6130   -2.2258    0.0000 C   0  0  0  0  0  0  0  0  0  0  0  0
   10.0229   -2.7214    0.0000 C   0  0  0  0  0  0  0  0  0  0  0  0
    8.8868   -4.1350    0.0000 C   0  0  0  0  0  0  0  0  0  0  0  0
    9.8336   -3.4381    0.0000 C   0  0  0  0  0  0  0  0  0  0  0  0
   12.0695   -1.4251    0.0000 C   0  0  0  0  0  0  0  0  0  0  0  0
   12.3394    0.3928    0.0000 C   0  0  0  0  0  0  0  0  0  0  0  0
    7.4063   -4.0010    0.0000 C   0  0  0  0  0  0  0  0  0  0  0  0
   11.8422    1.1149    0.0000 C   0  0  0  0  0  0  0  0  0  0  0  0
   10.1156    1.4140    0.0000 C   0  0  0  0  0  0  0  0  0  0  0  0
    6.6712   -1.9325    0.0000 C   0  0  0  0  0  0  0  0  0  0  0  0
   12.9626   -0.3892    0.0000 C   0  0  0  0  0  0  0  0  0  0  0  0
    9.7559   -4.6296    0.0000 C   0  0  0  0  0  0  0  0  0  0  0  0
    6.4063   -4.0010    0.0000 C   0  0  0  0  0  0  0  0  0  0  0  0
    9.1738    1.7073    0.0000 C   0  0  0  0  0  0  0  0  0  0  0  0
   11.8271   -2.3953    0.0000 C   0  0  0  0  0  0  0  0  0  0  0  0
    6.3780   -1.0234    0.0000 C   0  0  0  0  0  0  0  0  0  0  0  0
    5.4363   -0.7627    0.0000 C   0  0  2  0  0  0  0  0  0  0  0  0
    8.8480    2.6164    0.0000 C   0  0  2  0  0  0  0  0  0  0  0  0
    7.8737    2.6164    0.0000 C   0  0  0  0  0  0  0  0  0  0  0  0
   10.8504    2.0922    0.0000 C   0  0  0  0  0  0  0  0  0  0  0  0
    8.3256    0.5378    0.0000 C   0  5  0  0  0  0  0  0  0  0  0  0
    5.4363    0.2115    0.0000 C   0  0  1  0  0  0  0  0  0  0  0  0
    6.0005   -2.6742    0.0000 C   0  0  0  0  0  0  0  0  0  0  0  0
    7.5804    1.6747    0.0000 C   0  0  0  0  0  0  0  0  0  0  0  0
    6.3780    0.4723    0.0000 C   0  0  0  0  0  0  0  0  0  0  0  0
    9.1737    1.0676    0.0000 C   0  0  2  0  0  0  0  0  0  0  0  0
   13.9515   -0.2406    0.0000 C   0  0  0  0  0  0  0  0  0  0  0  0
    9.4236    3.4341    0.0000 C   0  0  0  0  0  0  0  0  0  0  0  0
    4.4366   -0.7847    0.0000 C   0  0  0  0  0  0  0  0  0  0  0  0
    5.9063   -4.8670    0.0000 C   0  0  0  0  0  0  0  0  0  0  0  0
    5.1483   -1.7203    0.0000 C   0  0  0  0  0  0  0  0  0  0  0  0
    6.6388    1.4140    0.0000 C   0  0  0  0  0  0  0  0  0  0  0  0
    4.6404    0.8170    0.0000 C   0  0  0  0  0  0  0  0  0  0  0  0
    7.8676    3.6164    0.0000 C   0  0  0  0  0  0  0  0  0  0  0  0
    6.9208    2.9196    0.0000 C   0  0  0  0  0  0  0  0  0  0  0  0
   10.1009    0.6929    0.0000 C   0  0  2  0  0  0  0  0  0  0  0  0
   10.7437    1.4589    0.0000 C   0  0  2  0  0  0  0  0  0  0  0  0
    9.0033    4.3415    0.0000 C   0  0  0  0  0  0  0  0  0  0  0  0
   10.2139    2.3070    0.0000 C   0  0  1  0  0  0  0  0  0  0  0  0
    3.7182    0.4305    0.0000 C   0  0  0  0  0  0  0  0  0  0  0  0
    3.9558   -1.6616    0.0000 C   0  0  0  0  0  0  0  0  0  0  0  0
   15.5636   -0.8739    0.0000 C   0  0  0  0  0  0  0  0  0  0  0  0
    8.1855    4.9171    0.0000 C   0  0  0  0  0  0  0  0  0  0  0  0
    2.9223    1.0360    0.0000 C   0  0  0  0  0  0  0  0  0  0  0  0
   16.1868   -1.6560    0.0000 C   0  0  1  0  0  0  0  0  0  0  0  0
   11.5534    3.4737    0.0000 C   0  0  0  0  0  0  0  0  0  0  0  0
   10.0612    4.0768    0.0000 C   0  0  0  0  0  0  0  0  0  0  0  0
   15.8211   -2.5868    0.0000 C   0  0  0  0  0  0  0  0  0  0  0  0
   11.6215    4.4714    0.0000 C   0  0  0  0  0  0  0  0  0  0  0  0
   12.5196    4.9112    0.0000 C   0  0  0  0  0  0  0  0  0  0  0  0
   13.2814    3.3557    0.0000 C   0  0  0  0  0  0  0  0  0  0  0  0
   19.4109   -2.9228    0.0000 C   0  0  1  0  0  0  0  0  0  0  0  0
   19.8719   -2.0354    0.0000 C   0  0  2  0  0  0  0  0  0  0  0  0
   20.1125   -3.6354    0.0000 C   0  0  1  0  0  0  0  0  0  0  0  0
   20.8583   -2.1995    0.0000 C   0  0  2  0  0  0  0  0  0  0  0  0
   19.9483   -4.6218    0.0000 C   0  0  0  0  0  0  0  0  0  0  0  0
   22.5514   -1.6621    0.0000 C   0  0  0  0  0  0  0  0  0  0  0  0
   21.4223   -0.5151    0.0000 C   0  0  0  0  0  0  0  0  0  0  0  0
   23.0108   -0.7738    0.0000 C   0  0  0  0  0  0  0  0  0  0  0  0
   23.0909   -2.5040    0.0000 C   0  0  0  0  0  0  0  0  0  0  0  0
   24.0098   -0.7276    0.0000 C   0  0  0  0  0  0  0  0  0  0  0  0
   24.0898   -2.4578    0.0000 C   0  0  0  0  0  0  0  0  0  0  0  0
   24.5493   -1.5696    0.0000 C   0  0  0  0  0  0  0  0  0  0  0  0
   24.6293   -3.2998    0.0000 C   0  0  0  0  0  0  0  0  0  0  0  0
   25.5482   -1.5234    0.0000 C   0  0  0  0  0  0  0  0  0  0  0  0
   10.7475   -1.5291    0.0000 H   0  0  0  0  0  0  0  0  0  0  0  0
   11.9213   -0.4880    0.0000 H   0  0  0  0  0  0  0  0  0  0  0  0
    7.2898   -3.0695    0.0000 H   0  0  0  0  0  0  0  0  0  0  0  0
    9.6955   -3.2479    0.0000 H   0  0  0  0  0  0  0  0  0  0  0  0
   10.5494   -3.0489    0.0000 H   0  0  0  0  0  0  0  0  0  0  0  0
   10.3504   -2.1950    0.0000 H   0  0  0  0  0  0  0  0  0  0  0  0
    8.2756   -4.0311    0.0000 H   0  0  0  0  0  0  0  0  0  0  0  0
    8.6784   -4.7189    0.0000 H   0  0  0  0  0  0  0  0  0  0  0  0
    9.6456   -4.0289    0.0000 H   0  0  0  0  0  0  0  0  0  0  0  0
   10.4244   -3.6260    0.0000 H   0  0  0  0  0  0  0  0  0  0  0  0
   10.0215   -2.8473    0.0000 H   0  0  0  0  0  0  0  0  0  0  0  0
   12.6358   -1.6775    0.0000 H   0  0  0  0  0  0  0  0  0  0  0  0
   12.4164   -0.9113    0.0000 H   0  0  0  0  0  0  0  0  0  0  0  0
   12.8840    0.6891    0.0000 H   0  0  0  0  0  0  0  0  0  0  0  0
   12.1421    0.9806    0.0000 H   0  0  0  0  0  0  0  0  0  0  0  0
    7.2986   -4.6116    0.0000 H   0  0  0  0  0  0  0  0  0  0  0  0
    7.9889   -4.2130    0.0000 H   0  0  0  0  0  0  0  0  0  0  0  0
   12.3820    0.8101    0.0000 H   0  0  0  0  0  0  0  0  0  0  0  0
   12.1470    1.6548    0.0000 H   0  0  0  0  0  0  0  0  0  0  0  0
   11.3023    1.4198    0.0000 H   0  0  0  0  0  0  0  0  0  0  0  0
   12.4180   -0.6856    0.0000 H   0  0  0  0  0  0  0  0  0  0  0  0
   13.1598   -0.9770    0.0000 H   0  0  0  0  0  0  0  0  0  0  0  0
    6.5140   -3.3904    0.0000 H   0  0  0  0  0  0  0  0  0  0  0  0
    5.8237   -3.7889    0.0000 H   0  0  0  0  0  0  0  0  0  0  0  0
    8.5624    3.1667    0.0000 H   0  0  0  0  0  0  0  0  0  0  0  0
   11.2709    1.6365    0.0000 H   0  0  0  0  0  0  0  0  0  0  0  0
   11.3061    2.5126    0.0000 H   0  0  0  0  0  0  0  0  0  0  0  0
   10.4300    2.5478    0.0000 H   0  0  0  0  0  0  0  0  0  0  0  0
    7.7998    0.2093    0.0000 H   0  0  0  0  0  0  0  0  0  0  0  0
    7.7782    0.8289    0.0000 H   0  0  0  0  0  0  0  0  0  0  0  0
    4.8808   -0.0638    0.0000 H   0  0  0  0  0  0  0  0  0  0  0  0
    5.5407   -2.2584    0.0000 H   0  0  0  0  0  0  0  0  0  0  0  0
    5.5847   -3.1341    0.0000 H   0  0  0  0  0  0  0  0  0  0  0  0
    6.4604   -3.0901    0.0000 H   0  0  0  0  0  0  0  0  0  0  0  0
    8.6423    1.3870    0.0000 H   0  0  0  0  0  0  0  0  0  0  0  0
    9.8609    2.9946    0.0000 H   0  0  0  0  0  0  0  0  0  0  0  0
    9.9324    3.7885    0.0000 H   0  0  0  0  0  0  0  0  0  0  0  0
    4.5307   -0.1719    0.0000 H   0  0  0  0  0  0  0  0  0  0  0  0
    3.8494   -0.5856    0.0000 H   0  0  0  0  0  0  0  0  0  0  0  0
    4.5546   -1.5418    0.0000 H   0  0  0  0  0  0  0  0  0  0  0  0
    4.9698   -2.3141    0.0000 H   0  0  0  0  0  0  0  0  0  0  0  0
    5.7421   -1.8989    0.0000 H   0  0  0  0  0  0  0  0  0  0  0  0
    6.2040    1.8560    0.0000 H   0  0  0  0  0  0  0  0  0  0  0  0
   10.3009   -5.9362    0.0000 H   0  0  0  0  0  0  0  0  0  0  0  0
    9.2271   -5.9429    0.0000 H   0  0  0  0  0  0  0  0  0  0  0  0
    5.0958    1.2378    0.0000 H   0  0  0  0  0  0  0  0  0  0  0  0
    4.3052    1.3385    0.0000 H   0  0  0  0  0  0  0  0  0  0  0  0
   13.1422   -2.9197    0.0000 H   0  0  0  0  0  0  0  0  0  0  0  0
   12.3958   -3.6918    0.0000 H   0  0  0  0  0  0  0  0  0  0  0  0
    8.4876    3.6202    0.0000 H   0  0  0  0  0  0  0  0  0  0  0  0
    7.8638    4.2364    0.0000 H   0  0  0  0  0  0  0  0  0  0  0  0
    7.2476    3.6126    0.0000 H   0  0  0  0  0  0  0  0  0  0  0  0
    7.1088    3.5104    0.0000 H   0  0  0  0  0  0  0  0  0  0  0  0
    6.3300    3.1076    0.0000 H   0  0  0  0  0  0  0  0  0  0  0  0
    6.7328    2.3288    0.0000 H   0  0  0  0  0  0  0  0  0  0  0  0
    9.6701    0.2470    0.0000 H   0  0  0  0  0  0  0  0  0  0  0  0
   11.0814    0.9389    0.0000 H   0  0  0  0  0  0  0  0  0  0  0  0
    9.6210    4.3940    0.0000 H   0  0  0  0  0  0  0  0  0  0  0  0
    8.5273    3.9442    0.0000 H   0  0  0  0  0  0  0  0  0  0  0  0
   10.8315    2.3610    0.0000 H   0  0  0  0  0  0  0  0  0  0  0  0
   14.3479   -1.5997    0.0000 H   0  0  0  0  0  0  0  0  0  0  0  0
    3.2628    0.0098    0.0000 H   0  0  0  0  0  0  0  0  0  0  0  0
    4.0534   -0.0910    0.0000 H   0  0  0  0  0  0  0  0  0  0  0  0
    6.0963   -6.2700    0.0000 H   0  0  0  0  0  0  0  0  0  0  0  0
    7.0263   -5.7330    0.0000 H   0  0  0  0  0  0  0  0  0  0  0  0
   16.1082   -0.5776    0.0000 H   0  0  0  0  0  0  0  0  0  0  0  0
   15.3663   -0.2862    0.0000 H   0  0  0  0  0  0  0  0  0  0  0  0
   11.1241   -0.2855    0.0000 H   0  0  0  0  0  0  0  0  0  0  0  0
   11.8551    2.3360    0.0000 H   0  0  0  0  0  0  0  0  0  0  0  0
    2.6342   -1.1536    0.0000 H   0  0  0  0  0  0  0  0  0  0  0  0
    2.6579   -2.2272    0.0000 H   0  0  0  0  0  0  0  0  0  0  0  0
   16.5731   -2.1409    0.0000 H   0  0  0  0  0  0  0  0  0  0  0  0
    9.4426    4.1190    0.0000 H   0  0  0  0  0  0  0  0  0  0  0  0
    7.7682    6.2700    0.0000 H   0  0  0  0  0  0  0  0  0  0  0  0
    8.8378    6.1737    0.0000 H   0  0  0  0  0  0  0  0  0  0  0  0
   15.2440   -2.3600    0.0000 H   0  0  0  0  0  0  0  0  0  0  0  0
   15.5944   -3.1638    0.0000 H   0  0  0  0  0  0  0  0  0  0  0  0
   16.3981   -2.8135    0.0000 H   0  0  0  0  0  0  0  0  0  0  0  0
    2.5553    2.4034    0.0000 H   0  0  0  0  0  0  0  0  0  0  0  0
    3.6205    2.2676    0.0000 H   0  0  0  0  0  0  0  0  0  0  0  0
   13.7960    3.0098    0.0000 H   0  0  0  0  0  0  0  0  0  0  0  0
   13.1445    6.1816    0.0000 H   0  0  0  0  0  0  0  0  0  0  0  0
   12.0731    6.2547    0.0000 H   0  0  0  0  0  0  0  0  0  0  0  0
   19.2147   -3.5109    0.0000 H   0  0  0  0  0  0  0  0  0  0  0  0
   19.2519   -2.0305    0.0000 H   0  0  0  0  0  0  0  0  0  0  0  0
   20.6112   -4.0038    0.0000 H   0  0  0  0  0  0  0  0  0  0  0  0
   20.6714   -1.6084    0.0000 H   0  0  0  0  0  0  0  0  0  0  0  0
   19.3637   -4.4154    0.0000 H   0  0  0  0  0  0  0  0  0  0  0  0
   19.6435   -5.1617    0.0000 H   0  0  0  0  0  0  0  0  0  0  0  0
   19.7667   -0.6235    0.0000 H   0  0  0  0  0  0  0  0  0  0  0  0
   20.8716   -0.2303    0.0000 H   0  0  0  0  0  0  0  0  0  0  0  0
   20.6187   -5.8688    0.0000 H   0  0  0  0  0  0  0  0  0  0  0  0
   22.8061   -3.0547    0.0000 H   0  0  0  0  0  0  0  0  0  0  0  0
   24.2946   -0.1769    0.0000 H   0  0  0  0  0  0  0  0  0  0  0  0
   24.1073   -3.6343    0.0000 H   0  0  0  0  0  0  0  0  0  0  0  0
   24.9638   -3.8218    0.0000 H   0  0  0  0  0  0  0  0  0  0  0  0
   25.1514   -2.9653    0.0000 H   0  0  0  0  0  0  0  0  0  0  0  0
   25.5769   -2.1427    0.0000 H   0  0  0  0  0  0  0  0  0  0  0  0
   26.1675   -1.4947    0.0000 H   0  0  0  0  0  0  0  0  0  0  0  0
   25.5196   -0.9040    0.0000 H   0  0  0  0  0  0  0  0  0  0  0  0
  2 12  1  0  0  0  0
  2 14  1  0  0  0  0
  2 15  1  0  0  0  0
  2 16  2  0  0  0  0
  3 56  2  0  0  0  0
  4 59  2  0  0  0  0
  5 70  1  0  0  0  0
  5 83  1  0  0  0  0
  6 71  2  0  0  0  0
  7 74  2  0  0  0  0
 80  8  1  6  0  0  0
  8177  1  0  0  0  0
 81  9  1  6  0  0  0
  9178  1  0  0  0  0
 10 85  2  0  0  0  0
 11 87  2  0  0  0  0
 89 12  1  6  0  0  0
 13 88  2  0  0  0  0
 96 14  1  1  0  0  0
 17 98  1  0  0  0  0
 17 99  1  0  0  0  0
 97 18  1  1  0  0  0
 18199  1  0  0  0  0
 19100  1  0  0  0  0
 19201  1  0  0  0  0
 20 39  1  0  0  0  0
 20 44  1  0  0  0  0
 21 38  1  0  0  0  0
 21 45  2  0  0  0  0
 22 58  2  0  0  0  0
 22 68  1  0  0  0  0
 23 60  1  0  0  0  0
 23 69  2  0  0  0  0
 24 56  1  0  0  0  0
 24153  1  0  0  0  0
 24154  1  0  0  0  0
 25 59  1  0  0  0  0
 25157  1  0  0  0  0
 25158  1  0  0  0  0
 26 71  1  0  0  0  0
 26 86  1  0  0  0  0
 26170  1  0  0  0  0
 27 74  1  0  0  0  0
 27173  1  0  0  0  0
 27174  1  0  0  0  0
 83 28  1  1  0  0  0
 28 90  1  0  0  0  0
 28 91  1  0  0  0  0
 29 85  1  0  0  0  0
 29179  1  0  0  0  0
 29180  1  0  0  0  0
 30 87  1  0  0  0  0
 30183  1  0  0  0  0
 30184  1  0  0  0  0
 31 88  1  0  0  0  0
 31188  1  0  0  0  0
 31189  1  0  0  0  0
 32 91  2  0  0  0  0
 32 93  1  0  0  0  0
 33 90  2  0  0  0  0
 33 95  1  0  0  0  0
 34 94  1  0  0  0  0
 34 95  2  0  0  0  0
 35 94  1  0  0  0  0
 35191  1  0  0  0  0
 35192  1  0  0  0  0
 99 36  1  1  0  0  0
 36101  1  0  0  0  0
 36102  1  0  0  0  0
 37102  2  0  0  0  0
 37103  1  0  0  0  0
 38 39  1  0  0  0  0
 38 40  1  0  0  0  0
 38 46  1  6  0  0  0
 39 41  1  0  0  0  0
 39110  1  0  0  0  0
 40 43  1  0  0  0  0
 40 47  1  0  0  0  0
 40 48  1  6  0  0  0
 41 42  1  0  0  0  0
 41 49  1  1  0  0  0
 41111  1  0  0  0  0
 42 44  1  0  0  0  0
 42 50  1  0  0  0  0
 42 52  1  1  0  0  0
 43 45  1  0  0  0  0
 43 51  1  6  0  0  0
 43112  1  0  0  0  0
 44 53  2  0  0  0  0
 45 54  1  0  0  0  0
 46113  1  0  0  0  0
 46114  1  0  0  0  0
 46115  1  0  0  0  0
 47 56  1  0  0  0  0
 47116  1  0  0  0  0
 47117  1  0  0  0  0
 48118  1  0  0  0  0
 48119  1  0  0  0  0
 48120  1  0  0  0  0
 49 59  1  0  0  0  0
 49121  1  0  0  0  0
 49122  1  0  0  0  0
 50 55  1  0  0  0  0
 50123  1  0  0  0  0
 50124  1  0  0  0  0
 51 57  1  0  0  0  0
 51125  1  0  0  0  0
 51126  1  0  0  0  0
 52127  1  0  0  0  0
 52128  1  0  0  0  0
 52129  1  0  0  0  0
 53 58  1  0  0  0  0
 53 64  1  0  0  0  0
 54 60  2  0  0  0  0
 54 67  1  0  0  0  0
 55 71  1  0  0  0  0
 55130  1  0  0  0  0
 55131  1  0  0  0  0
 57 74  1  0  0  0  0
 57132  1  0  0  0  0
 57133  1  0  0  0  0
 58 62  1  0  0  0  0
 60 61  1  0  0  0  0
 61 66  1  0  0  0  0
 61 73  1  0  0  0  0
 61 75  1  6  0  0  0
 62 63  1  0  0  0  0
 62 72  1  6  0  0  0
 62134  1  0  0  0  0
 63 68  1  0  0  0  0
 63 78  1  0  0  0  0
 63 79  1  0  0  0  0
 64135  1  0  0  0  0
 64136  1  0  0  0  0
 64137  1  0  0  0  0
 70 65  1  1  0  0  0
 65138  1  0  0  0  0
 65139  1  0  0  0  0
 66 69  1  0  0  0  0
 66 77  1  6  0  0  0
 66140  1  0  0  0  0
 67141  1  0  0  0  0
 67142  1  0  0  0  0
 67143  1  0  0  0  0
 68 76  2  0  0  0  0
 69 76  1  0  0  0  0
 70 80  1  0  0  0  0
 70144  1  0  0  0  0
 72 82  1  0  0  0  0
 72145  1  0  0  0  0
 72146  1  0  0  0  0
 73 85  1  0  0  0  0
 73147  1  0  0  0  0
 73148  1  0  0  0  0
 75149  1  0  0  0  0
 75150  1  0  0  0  0
 75151  1  0  0  0  0
 76152  1  0  0  0  0
 77 84  1  0  0  0  0
 77155  1  0  0  0  0
 77156  1  0  0  0  0
 78159  1  0  0  0  0
 78160  1  0  0  0  0
 78161  1  0  0  0  0
 79162  1  0  0  0  0
 79163  1  0  0  0  0
 79164  1  0  0  0  0
 80 81  1  0  0  0  0
 80165  1  0  0  0  0
 81 83  1  0  0  0  0
 81166  1  0  0  0  0
 82 87  1  0  0  0  0
 82167  1  0  0  0  0
 82168  1  0  0  0  0
 83169  1  0  0  0  0
 84 88  1  0  0  0  0
 84171  1  0  0  0  0
 84172  1  0  0  0  0
 86 89  1  0  0  0  0
 86175  1  0  0  0  0
 86176  1  0  0  0  0
 89 92  1  0  0  0  0
 89181  1  0  0  0  0
 90 93  1  0  0  0  0
 91182  1  0  0  0  0
 92185  1  0  0  0  0
 92186  1  0  0  0  0
 92187  1  0  0  0  0
 93 94  2  0  0  0  0
 95190  1  0  0  0  0
 96 97  1  0  0  0  0
 96 98  1  0  0  0  0
 96193  1  0  0  0  0
 97 99  1  0  0  0  0
 97194  1  0  0  0  0
 98100  1  6  0  0  0
 98195  1  0  0  0  0
 99196  1  0  0  0  0
100197  1  0  0  0  0
100198  1  0  0  0  0
101103  2  0  0  0  0
101104  1  0  0  0  0
102200  1  0  0  0  0
103105  1  0  0  0  0
104106  2  0  0  0  0
104202  1  0  0  0  0
105107  2  0  0  0  0
105203  1  0  0  0  0
106107  1  0  0  0  0
106108  1  0  0  0  0
107109  1  0  0  0  0
108204  1  0  0  0  0
108205  1  0  0  0  0
108206  1  0  0  0  0
109207  1  0  0  0  0
109208  1  0  0  0  0
109209  1  0  0  0  0
M  CHG  4   1   3  15  -1  20  -1  65  -1
M  END
> <PUBCHEM_COMPOUND_CID>
24892716

> <PUBCHEM_COMPOUND_CANONICALIZED>
1

> <PUBCHEM_CACTVS_COMPLEXITY>
3730

> <PUBCHEM_CACTVS_HBOND_ACCEPTOR>
27

> <PUBCHEM_CACTVS_HBOND_DONOR>
12

> <PUBCHEM_CACTVS_ROTATABLE_BOND>
27

> <PUBCHEM_CACTVS_SUBSKEYS>
AAADcfB//gIAAAAQAAAAAAAAAAAAAWLFiRI8QAAAAAAAAFgB/gAAHgAQCCAAD7zhnwY38L/MFxCoQydzdICCgC0xEqAB2KE4dJiLeLLA2dGeZAhvlgLbyCf8ucKfiAAAQAAQACAQAACAACAAQAAAAAAAAA==

> <PUBCHEM_IUPAC_OPENEYE_NAME>
cobaltic;(2R,3R,4S,5R)-2-(6-aminopurin-9-yl)-5-methanidyl-tetrahydrofuran-3,4-diol;[(2R,3S,4R,5S)-5-(5,6-dimethylbenzimidazol-1-yl)-4-hydroxy-2-(hydroxymethyl)tetrahydrofuran-3-yl] [(1R)-1-methyl-2-[3-[(2R,3R,4Z,7S,9Z,12S,13S,14Z,17S,18S,19R)-2,13,18-tris(2-amino-2-oxo-ethyl)-7,12,17-tris(3-amino-3-oxo-propyl)-3,5,8,8,13,15,18,19-octamethyl-2,7,12,17-tetrahydro-1H-corrin-21-id-3-yl]propanoylamino]ethyl] phosphate

> <PUBCHEM_IUPAC_CAS_NAME>
(2R,3R,4S,5R)-2-(6-aminopurin-9-yl)-5-methanidyloxolane-3,4-diol;cobalt(3+);[(2R,3S,4R,5S)-5-(5,6-dimethyl-1-benzimidazolyl)-4-hydroxy-2-(hydroxymethyl)-3-oxolanyl] [(2R)-1-[[1-oxo-3-[(2R,3R,4Z,7S,9Z,12S,13S,14Z,17S,18S,19R)-2,13,18-tris(2-amino-2-oxoethyl)-7,12,17-tris(3-amino-3-oxopropyl)-3,5,8,8,13,15,18,19-octamethyl-2,7,12,17-tetrahydro-1H-corrin-21-id-3-yl]propyl]amino]propan-2-yl] phosphate

> <PUBCHEM_IUPAC_NAME_MARKUP>
(2<I>R</I>,3<I>R</I>,4<I>S</I>,5<I>R</I>)-2-(6-aminopurin-9-yl)-5-methanidyloxolane-3,4-diol;cobalt(3+);[(2<I>R</I>,3<I>S</I>,4<I>R</I>,5<I>S</I>)-5-(5,6-dimethylbenzimidazol-1-yl)-4-hydroxy-2-(hydroxymethyl)oxolan-3-yl] [(2<I>R</I>)-1-[3-[(2<I>R</I>,3<I>R</I>,4<I>Z</I>,7<I>S</I>,9<I>Z</I>,12<I>S</I>,13<I>S</I>,14<I>Z</I>,17<I>S</I>,18<I>S</I>,19<I>R</I>)-2,13,18-tris(2-amino-2-oxoethyl)-7,12,17-tris(3-amino-3-oxopropyl)-3,5,8,8,13,15,18,19-octamethyl-2,7,12,17-tetrahydro-1<I>H</I>-corrin-21-id-3-yl]propanoylamino]propan-2-yl] phosphate

> <PUBCHEM_IUPAC_NAME>
(2R,3R,4S,5R)-2-(6-aminopurin-9-yl)-5-methanidyloxolane-3,4-diol;cobalt(3+);[(2R,3S,4R,5S)-5-(5,6-dimethylbenzimidazol-1-yl)-4-hydroxy-2-(hydroxymethyl)oxolan-3-yl] [(2R)-1-[3-[(2R,3R,4Z,7S,9Z,12S,13S,14Z,17S,18S,19R)-2,13,18-tris(2-amino-2-oxoethyl)-7,12,17-tris(3-amino-3-oxopropyl)-3,5,8,8,13,15,18,19-octamethyl-2,7,12,17-tetrahydro-1H-corrin-21-id-3-yl]propanoylamino]propan-2-yl] phosphate

> <PUBCHEM_IUPAC_SYSTEMATIC_NAME>
(2R,3R,4S,5R)-2-(6-aminopurin-9-yl)-5-methanidyl-oxolane-3,4-diol;cobalt(3+);[(2R,3S,4R,5S)-5-(5,6-dimethylbenzimidazol-1-yl)-2-(hydroxymethyl)-4-oxidanyl-oxolan-3-yl] [(2R)-1-[3-[(2R,3R,4Z,7S,9Z,12S,13S,14Z,17S,18S,19R)-2,13,18-tris(2-azanyl-2-oxidanylidene-ethyl)-7,12,17-tris(3-azanyl-3-oxidanylidene-propyl)-3,5,8,8,13,15,18,19-octamethyl-2,7,12,17-tetrahydro-1H-corrin-21-id-3-yl]propanoylamino]propan-2-yl] phosphate

> <PUBCHEM_IUPAC_TRADITIONAL_NAME>
cobaltic;(2R,3R,4S,5R)-2-adenin-9-yl-5-methanidyl-tetrahydrofuran-3,4-diol;[(2R,3S,4R,5S)-5-(5,6-dimethylbenzimidazol-1-yl)-4-hydroxy-2-methylol-tetrahydrofuran-3-yl] [(1R)-1-methyl-2-[3-[(2R,3R,4Z,7S,9Z,12S,13S,14Z,17S,18S,19R)-2,13,18-tris(2-amino-2-keto-ethyl)-7,12,17-tris(3-amino-3-keto-propyl)-3,5,8,8,13,15,18,19-octamethyl-2,7,12,17-tetrahydro-1H-corrin-21-id-3-yl]propanoylamino]ethyl] phosphate

> <PUBCHEM_IUPAC_INCHI>
InChI=1S/C62H90N13O14P.C10H12N5O3.Co/c1-29-20-39-40(21-30(29)2)75(28-70-39)57-52(84)53(41(27-76)87-57)89-90(85,86)88-31(3)26-69-49(83)18-19-59(8)37(22-46(66)80)56-62(11)61(10,25-48(68)82)36(14-17-45(65)79)51(74-62)33(5)55-60(9,24-47(67)81)34(12-15-43(63)77)38(71-55)23-42-58(6,7)35(13-16-44(64)78)50(72-42)32(4)54(59)73-56;1-4-6(16)7(17)10(18-4)15-3-14-5-8(11)12-2-13-9(5)15;/h20-21,23,28,31,34-37,41,52-53,56-57,76,84H,12-19,22,24-27H2,1-11H3,(H15,63,64,65,66,67,68,69,71,72,73,74,77,78,79,80,81,82,83,85,86);2-4,6-7,10,16-17H,1H2,(H2,11,12,13);/q;-1;+3/p-2/t31-,34-,35-,36-,37+,41-,52-,53-,56?,57+,59-,60+,61+,62+;4-,6-,7-,10-;/m11./s1

> <PUBCHEM_IUPAC_INCHIKEY>
OAJLVMGLJZXSGX-QRVZQHAISA-L

> <PUBCHEM_EXACT_MASS>
1578.658339

> <PUBCHEM_MOLECULAR_FORMULA>
C72H100CoN18O17P

> <PUBCHEM_MOLECULAR_WEIGHT>
1579.6

> <PUBCHEM_SMILES>
CC1=CC2=C(C=C1C)N(C=N2)[C@@H]3[C@@H]([C@@H]([C@H](O3)CO)OP(=O)([O-])O[C@H](C)CNC(=O)CC[C@@]\4([C@H](C5[C@]6([C@@]([C@@H](C(=N6)/C(=C\7/[C@@]([C@@H](C(=N7)/C=C\8/C([C@@H](C(=N8)/C(=C4\[N-]5)/C)CCC(=O)N)(C)C)CCC(=O)N)(C)CC(=O)N)/C)CCC(=O)N)(C)CC(=O)N)C)CC(=O)N)C)O.[CH2-][C@@H]1[C@H]([C@H]([C@@H](O1)N2C=NC3=C(N=CN=C32)N)O)O.[Co+3]

> <PUBCHEM_CONNECTIVITY_SMILES>
CC1=CC2=C(C=C1C)N(C=N2)C3C(C(C(O3)CO)OP(=O)([O-])OC(C)CNC(=O)CCC4(C(C5C6(C(C(C(=N6)C(=C7C(C(C(=N7)C=C8C(C(C(=N8)C(=C4[N-]5)C)CCC(=O)N)(C)C)CCC(=O)N)(C)CC(=O)N)C)CCC(=O)N)(C)CC(=O)N)C)CC(=O)N)C)O.[CH2-]C1C(C(C(O1)N2C=NC3=C(N=CN=C32)N)O)O.[Co+3]

> <PUBCHEM_CACTVS_TPSA>
571

> <PUBCHEM_MONOISOTOPIC_WEIGHT>
1578.658339

> <PUBCHEM_TOTAL_CHARGE>
0

> <PUBCHEM_HEAVY_ATOM_COUNT>
109

> <PUBCHEM_ATOM_DEF_STEREO_COUNT>
17

> <PUBCHEM_ATOM_UDEF_STEREO_COUNT>
1

> <PUBCHEM_BOND_DEF_STEREO_COUNT>
3

> <PUBCHEM_BOND_UDEF_STEREO_COUNT>
0

> <PUBCHEM_ISOTOPIC_ATOM_COUNT>
0

> <PUBCHEM_COMPONENT_COUNT>
3

> <PUBCHEM_CACTVS_TAUTO_COUNT>
-1

> <PUBCHEM_NONSTANDARDBOND>
1  20  6
1  65  6

> <PUBCHEM_COORDINATE_TYPE>
1
5
255

> <PUBCHEM_BONDANNOTATIONS>
101  103  8
101  104  8
103  105  8
104  106  8
105  107  8
106  107  8
89  12  6
96  14  5
97  18  5
39  20  3
83  28  5
28  90  8
28  91  8
32  91  8
32  93  8
33  90  8
33  95  8
34  94  8
34  95  8
36  101  8
36  102  8
99  36  5
37  102  8
37  103  8
38  46  6
40  48  6
41  49  5
42  52  5
43  51  6
61  75  6
62  72  6
70  65  5
66  77  6
80  8  6
81  9  6
90  93  8
93  94  8
98  100  6

$$$$
24971461
  -OEChem-04182609202D

209217  0     1  0  0  0  0  0999 V2000
    7.2438    1.8817    0.0000 Co  0  2  0  0  0  0  0  0  0  0  0  0
    4.8914   -5.9248    0.0000 P   0  0  3  0  0  0  0  0  0  0  0  0
    9.5002    2.9905    0.0000 O   0  0  0  0  0  0  0  0  0  0  0  0
    8.3573    0.6690    0.0000 O   0  0  0  0  0  0  0  0  0  0  0  0
   10.8674    1.0122    0.0000 O   0  0  0  0  0  0  0  0  0  0  0  0
    8.6082   -4.7945    0.0000 O   0  0  0  0  0  0  0  0  0  0  0  0
    3.2166    2.6458    0.0000 O   0  0  0  0  0  0  0  0  0  0  0  0
    3.8026    1.8720    0.0000 O   0  0  0  0  0  0  0  0  0  0  0  0
    7.9632    5.8987    0.0000 O   0  0  0  0  0  0  0  0  0  0  0  0
    6.1602   -4.3119    0.0000 O   0  0  0  0  0  0  0  0  0  0  0  0
    5.3168   -3.1586    0.0000 O   0  0  0  0  0  0  0  0  0  0  0  0
    5.2258    6.9665    0.0000 O   0  0  0  0  0  0  0  0  0  0  0  0
    6.3500   -5.9238    0.0000 O   0  0  0  0  0  0  0  0  0  0  0  0
    6.4772   -1.2516    0.0000 O   0  0  0  0  0  0  0  0  0  0  0  0
   12.2363    4.3613    0.0000 O   0  0  0  0  0  0  0  0  0  0  0  0
    9.3326   -6.7191    0.0000 O   0  0  0  0  0  0  0  0  0  0  0  0
    4.1460   -5.3482    0.0000 O   0  0  0  0  0  0  0  0  0  0  0  0
    4.3345   -6.7554    0.0000 O   0  5  0  0  0  0  0  0  0  0  0  0
    4.8244   -6.9225    0.0000 O   0  0  0  0  0  0  0  0  0  0  0  0
    6.3511    2.7265    0.0000 N   0  5  0  0  0  0  0  0  0  0  0  0
    6.2696    0.9555    0.0000 N   0  0  0  0  0  0  0  0  0  0  0  0
    8.1233    2.8092    0.0000 N   0  0  0  0  0  0  0  0  0  0  0  0
    8.0613    1.0577    0.0000 N   0  0  0  0  0  0  0  0  0  0  0  0
    8.3603   -1.6098    0.0000 N   0  0  0  0  0  0  0  0  0  0  0  0
    8.3532   -3.1346    0.0000 N   0  0  0  0  0  0  0  0  0  0  0  0
   11.2532    2.6703    0.0000 N   0  0  0  0  0  0  0  0  0  0  0  0
    2.5760    4.2550    0.0000 N   0  0  0  0  0  0  0  0  0  0  0  0
    2.4374    0.8060    0.0000 N   0  0  0  0  0  0  0  0  0  0  0  0
    9.5513    6.5900    0.0000 N   0  0  0  0  0  0  0  0  0  0  0  0
    3.6538   -2.9040    0.0000 N   0  0  0  0  0  0  0  0  0  0  0  0
    3.5149    6.6972    0.0000 N   0  0  0  0  0  0  0  0  0  0  0  0
    6.4772   -2.3987    0.0000 N   0  0  0  0  0  0  0  0  0  0  0  0
   11.7086    6.0111    0.0000 N   0  0  0  0  0  0  0  0  0  0  0  0
   12.5756    3.5876    0.0000 N   0  0  0  0  0  0  0  0  0  0  0  0
   12.1256    1.0699    0.0000 N   0  0  0  0  0  0  0  0  0  0  0  0
   13.8517    1.2133    0.0000 N   0  0  0  0  0  0  0  0  0  0  0  0
   14.5907    2.7798    0.0000 N   0  0  0  0  0  0  0  0  0  0  0  0
    5.4857    2.6028    0.0000 C   0  0  1  0  0  0  0  0  0  0  0  0
    5.4455    1.0381    0.0000 C   0  0  1  0  0  0  0  0  0  0  0  0
    7.7340    2.7534    0.0000 C   0  5  0  0  0  0  0  0  0  0  0  0
    5.0748    3.3854    0.0000 C   0  0  2  0  0  0  0  0  0  0  0  0
    6.4544    3.6128    0.0000 C   0  0  0  0  0  0  0  0  0  0  0  0
    6.4141    0.1108    0.0000 C   0  0  0  0  0  0  0  0  0  0  0  0
    5.0334    0.2957    0.0000 C   0  0  1  0  0  0  0  0  0  0  0  0
    5.6510   -0.3219    0.0000 C   0  0  1  0  0  0  0  0  0  0  0  0
    5.6923    4.0030    0.0000 C   0  0  1  0  0  0  0  0  0  0  0  0
    7.9994    3.6334    0.0000 C   0  0  0  0  0  0  0  0  0  0  0  0
    7.9581    0.1304    0.0000 C   0  0  0  0  0  0  0  0  0  0  0  0
    8.9474    1.1610    0.0000 C   0  0  0  0  0  0  0  0  0  0  0  0
    8.9474    2.6853    0.0000 C   0  0  0  0  0  0  0  0  0  0  0  0
    8.6775    2.4220    0.0000 C   0  0  2  0  0  0  0  0  0  0  0  0
    4.5118    2.3758    0.0000 C   0  0  0  0  0  0  0  0  0  0  0  0
    7.2372    4.0238    0.0000 C   0  0  0  0  0  0  0  0  0  0  0  0
    7.1753   -0.2806    0.0000 C   0  0  0  0  0  0  0  0  0  0  0  0
    8.7615    4.0649    0.0000 C   0  0  2  0  0  0  0  0  0  0  0  0
    9.3583    0.3782    0.0000 C   0  0  0  0  0  0  0  0  0  0  0  0
    8.7408   -0.2393    0.0000 C   0  0  2  0  0  0  0  0  0  0  0  0
    9.3789    3.4474    0.0000 C   0  0  2  0  0  0  0  0  0  0  0  0
    9.3790    1.9232    0.0000 C   0  0  0  0  0  0  0  0  0  0  0  0
    9.2551   -1.9052    0.0000 C   0  0  0  0  0  0  0  0  0  0  0  0
    7.8028   -2.3696    0.0000 C   0  0  0  0  0  0  0  0  0  0  0  0
    4.2900    4.0051    0.0000 C   0  0  0  0  0  0  0  0  0  0  0  0
    4.2429    2.8305    0.0000 C   0  0  0  0  0  0  0  0  0  0  0  0
    4.0432    0.1568    0.0000 C   0  0  0  0  0  0  0  0  0  0  0  0
    5.5244   -1.2557    0.0000 C   0  0  0  0  0  0  0  0  0  0  0  0
    5.5368    4.9909    0.0000 C   0  0  0  0  0  0  0  0  0  0  0  0
    4.7034   -0.6415    0.0000 C   0  0  0  0  0  0  0  0  0  0  0  0
    8.9640    1.4639    0.0000 C   0  0  2  0  0  0  0  0  0  0  0  0
    9.2508   -2.8475    0.0000 C   0  0  0  0  0  0  0  0  0  0  0  0
    7.1871    5.0225    0.0000 C   0  0  0  0  0  0  0  0  0  0  0  0
    9.3559    4.8690    0.0000 C   0  0  0  0  0  0  0  0  0  0  0  0
    7.1352   -1.2798    0.0000 C   0  0  0  0  0  0  0  0  0  0  0  0
    8.9996   -1.2052    0.0000 C   0  0  0  0  0  0  0  0  0  0  0  0
   10.3314    3.7520    0.0000 C   0  0  0  0  0  0  0  0  0  0  0  0
    8.1804    4.8788    0.0000 C   0  0  0  0  0  0  0  0  0  0  0  0
   10.3573    0.3320    0.0000 C   0  0  0  0  0  0  0  0  0  0  0  0
   10.0697   -0.3245    0.0000 C   0  0  0  0  0  0  0  0  0  0  0  0
   10.0733   -1.4378    0.0000 C   0  0  0  0  0  0  0  0  0  0  0  0
    9.9637    1.4403    0.0000 C   0  0  2  0  0  0  0  0  0  0  0  0
   10.2951    2.3838    0.0000 C   0  0  1  0  0  0  0  0  0  0  0  0
    3.3609    3.6353    0.0000 C   0  0  0  0  0  0  0  0  0  0  0  0
    4.6524   -1.6130    0.0000 C   0  0  0  0  0  0  0  0  0  0  0  0
    4.6036    5.3501    0.0000 C   0  0  0  0  0  0  0  0  0  0  0  0
    3.4277    0.9449    0.0000 C   0  0  0  0  0  0  0  0  0  0  0  0
    8.0579   -4.0295    0.0000 C   0  0  2  0  0  0  0  0  0  0  0  0
   10.0647   -3.3225    0.0000 C   0  0  0  0  0  0  0  0  0  0  0  0
    8.2925   -1.9123    0.0000 C   0  0  0  0  0  0  0  0  0  0  0  0
   10.5438    4.7292    0.0000 C   0  0  0  0  0  0  0  0  0  0  0  0
    8.9568    5.7859    0.0000 C   0  0  0  0  0  0  0  0  0  0  0  0
   10.8873   -1.9127    0.0000 C   0  0  0  0  0  0  0  0  0  0  0  0
   10.8829   -2.8551    0.0000 C   0  0  0  0  0  0  0  0  0  0  0  0
    7.1602   -4.3166    0.0000 C   0  0  1  0  0  0  0  0  0  0  0  0
    4.5258   -2.5468    0.0000 C   0  0  0  0  0  0  0  0  0  0  0  0
    4.4481    6.3380    0.0000 C   0  0  0  0  0  0  0  0  0  0  0  0
    7.1559   -5.2589    0.0000 C   0  0  1  0  0  0  0  0  0  0  0  0
    7.2963   -1.8252    0.0000 C   0  0  0  0  0  0  0  0  0  0  0  0
   11.4962    5.0339    0.0000 C   0  0  0  0  0  0  0  0  0  0  0  0
   11.7556   -1.4167    0.0000 C   0  0  0  0  0  0  0  0  0  0  0  0
    8.0508   -5.5543    0.0000 C   0  0  1  0  0  0  0  0  0  0  0  0
   11.7466   -3.3591    0.0000 C   0  0  0  0  0  0  0  0  0  0  0  0
   12.0429    2.0665    0.0000 C   0  0  0  0  0  0  0  0  0  0  0  0
   11.5818    3.6085    0.0000 C   0  0  0  0  0  0  0  0  0  0  0  0
    8.3554   -6.5068    0.0000 C   0  0  0  0  0  0  0  0  0  0  0  0
   12.8646    2.6364    0.0000 C   0  0  0  0  0  0  0  0  0  0  0  0
    3.5272   -3.8379    0.0000 C   0  0  0  0  0  0  0  0  0  0  0  0
    4.2726   -4.4144    0.0000 C   0  0  1  0  0  0  0  0  0  0  0  0
   13.7690    2.2098    0.0000 C   0  0  0  0  0  0  0  0  0  0  0  0
   13.0301    0.6433    0.0000 C   0  0  0  0  0  0  0  0  0  0  0  0
    5.0683   -3.8087    0.0000 C   0  0  0  0  0  0  0  0  0  0  0  0
    4.6254    1.2617    0.0000 H   0  0  0  0  0  0  0  0  0  0  0  0
    7.1141    2.7463    0.0000 H   0  0  0  0  0  0  0  0  0  0  0  0
    7.4180    3.2868    0.0000 H   0  0  0  0  0  0  0  0  0  0  0  0
    4.6825    0.8067    0.0000 H   0  0  0  0  0  0  0  0  0  0  0  0
    6.1944    4.3667    0.0000 H   0  0  0  0  0  0  0  0  0  0  0  0
    8.5950    3.0365    0.0000 H   0  0  0  0  0  0  0  0  0  0  0  0
    4.3711    2.9797    0.0000 H   0  0  0  0  0  0  0  0  0  0  0  0
    3.9080    2.2352    0.0000 H   0  0  0  0  0  0  0  0  0  0  0  0
    4.6525    1.7720    0.0000 H   0  0  0  0  0  0  0  0  0  0  0  0
    8.2649   -0.6366    0.0000 H   0  0  0  0  0  0  0  0  0  0  0  0
    9.7700    2.9663    0.0000 H   0  0  0  0  0  0  0  0  0  0  0  0
    9.9990    1.9180    0.0000 H   0  0  0  0  0  0  0  0  0  0  0  0
    7.1829   -2.3668    0.0000 H   0  0  0  0  0  0  0  0  0  0  0  0
    4.7529    4.4176    0.0000 H   0  0  0  0  0  0  0  0  0  0  0  0
    3.9641    4.5326    0.0000 H   0  0  0  0  0  0  0  0  0  0  0  0
    3.8988    3.3463    0.0000 H   0  0  0  0  0  0  0  0  0  0  0  0
    3.7271    2.4865    0.0000 H   0  0  0  0  0  0  0  0  0  0  0  0
    4.5869    2.3147    0.0000 H   0  0  0  0  0  0  0  0  0  0  0  0
    3.4956   -0.1342    0.0000 H   0  0  0  0  0  0  0  0  0  0  0  0
    4.2346   -0.4330    0.0000 H   0  0  0  0  0  0  0  0  0  0  0  0
    5.6562   -1.8615    0.0000 H   0  0  0  0  0  0  0  0  0  0  0  0
    6.1439   -1.2310    0.0000 H   0  0  0  0  0  0  0  0  0  0  0  0
    6.1567    4.9794    0.0000 H   0  0  0  0  0  0  0  0  0  0  0  0
    5.6557    5.5994    0.0000 H   0  0  0  0  0  0  0  0  0  0  0  0
    4.5052   -0.0540    0.0000 H   0  0  0  0  0  0  0  0  0  0  0  0
    4.1160   -0.8397    0.0000 H   0  0  0  0  0  0  0  0  0  0  0  0
    4.9016   -1.2290    0.0000 H   0  0  0  0  0  0  0  0  0  0  0  0
    8.3541    1.5753    0.0000 H   0  0  0  0  0  0  0  0  0  0  0  0
    7.8063    5.0536    0.0000 H   0  0  0  0  0  0  0  0  0  0  0  0
    7.1560    5.6417    0.0000 H   0  0  0  0  0  0  0  0  0  0  0  0
    6.5679    4.9915    0.0000 H   0  0  0  0  0  0  0  0  0  0  0  0
    9.7829    4.4195    0.0000 H   0  0  0  0  0  0  0  0  0  0  0  0
    9.8728    5.2115    0.0000 H   0  0  0  0  0  0  0  0  0  0  0  0
    6.5157   -1.2550    0.0000 H   0  0  0  0  0  0  0  0  0  0  0  0
    7.1104   -1.8993    0.0000 H   0  0  0  0  0  0  0  0  0  0  0  0
    7.7548   -1.3046    0.0000 H   0  0  0  0  0  0  0  0  0  0  0  0
    9.3553   -1.7131    0.0000 H   0  0  0  0  0  0  0  0  0  0  0  0
    9.5615   -0.9432    0.0000 H   0  0  0  0  0  0  0  0  0  0  0  0
   10.4148    3.1377    0.0000 H   0  0  0  0  0  0  0  0  0  0  0  0
   10.9509    3.7276    0.0000 H   0  0  0  0  0  0  0  0  0  0  0  0
    8.6850    5.2390    0.0000 H   0  0  0  0  0  0  0  0  0  0  0  0
    7.8202    5.3834    0.0000 H   0  0  0  0  0  0  0  0  0  0  0  0
    7.6758    4.5185    0.0000 H   0  0  0  0  0  0  0  0  0  0  0  0
   10.3286   -0.2873    0.0000 H   0  0  0  0  0  0  0  0  0  0  0  0
   10.9766    0.3033    0.0000 H   0  0  0  0  0  0  0  0  0  0  0  0
   10.3859    0.9513    0.0000 H   0  0  0  0  0  0  0  0  0  0  0  0
    9.6340   -0.7656    0.0000 H   0  0  0  0  0  0  0  0  0  0  0  0
   10.5108   -0.7603    0.0000 H   0  0  0  0  0  0  0  0  0  0  0  0
   10.5055    0.1165    0.0000 H   0  0  0  0  0  0  0  0  0  0  0  0
   10.0762   -0.8178    0.0000 H   0  0  0  0  0  0  0  0  0  0  0  0
    9.8206    0.8371    0.0000 H   0  0  0  0  0  0  0  0  0  0  0  0
   10.7230    1.9352    0.0000 H   0  0  0  0  0  0  0  0  0  0  0  0
    4.5205   -1.0071    0.0000 H   0  0  0  0  0  0  0  0  0  0  0  0
    4.0329   -1.6376    0.0000 H   0  0  0  0  0  0  0  0  0  0  0  0
    3.9837    5.3615    0.0000 H   0  0  0  0  0  0  0  0  0  0  0  0
    4.4847    4.7416    0.0000 H   0  0  0  0  0  0  0  0  0  0  0  0
    8.8980   -3.9004    0.0000 H   0  0  0  0  0  0  0  0  0  0  0  0
   10.0618   -3.9425    0.0000 H   0  0  0  0  0  0  0  0  0  0  0  0
    8.0975   -2.5008    0.0000 H   0  0  0  0  0  0  0  0  0  0  0  0
    8.8202   -2.2378    0.0000 H   0  0  0  0  0  0  0  0  0  0  0  0
   10.4603    5.3436    0.0000 H   0  0  0  0  0  0  0  0  0  0  0  0
    9.9243    4.7537    0.0000 H   0  0  0  0  0  0  0  0  0  0  0  0
    7.7381    0.6403    0.0000 H   0  0  0  0  0  0  0  0  0  0  0  0
    6.9714   -3.7260    0.0000 H   0  0  0  0  0  0  0  0  0  0  0  0
   11.3774    1.3648    0.0000 H   0  0  0  0  0  0  0  0  0  0  0  0
    2.0000    4.0258    0.0000 H   0  0  0  0  0  0  0  0  0  0  0  0
    2.6655    4.8686    0.0000 H   0  0  0  0  0  0  0  0  0  0  0  0
    2.2050    0.2312    0.0000 H   0  0  0  0  0  0  0  0  0  0  0  0
    2.0558    1.2947    0.0000 H   0  0  0  0  0  0  0  0  0  0  0  0
    7.3127   -6.0944    0.0000 H   0  0  0  0  0  0  0  0  0  0  0  0
   12.0631   -1.9551    0.0000 H   0  0  0  0  0  0  0  0  0  0  0  0
   12.2939   -1.1092    0.0000 H   0  0  0  0  0  0  0  0  0  0  0  0
   11.4480   -0.8783    0.0000 H   0  0  0  0  0  0  0  0  0  0  0  0
    8.6627   -5.6541    0.0000 H   0  0  0  0  0  0  0  0  0  0  0  0
    9.3038    7.1585    0.0000 H   0  0  0  0  0  0  0  0  0  0  0  0
   10.1673    6.5201    0.0000 H   0  0  0  0  0  0  0  0  0  0  0  0
   11.4342   -3.8946    0.0000 H   0  0  0  0  0  0  0  0  0  0  0  0
   12.2821   -3.6715    0.0000 H   0  0  0  0  0  0  0  0  0  0  0  0
   12.0591   -2.8236    0.0000 H   0  0  0  0  0  0  0  0  0  0  0  0
   11.2284    4.1179    0.0000 H   0  0  0  0  0  0  0  0  0  0  0  0
    3.1634   -2.5247    0.0000 H   0  0  0  0  0  0  0  0  0  0  0  0
    3.4184    7.3097    0.0000 H   0  0  0  0  0  0  0  0  0  0  0  0
    3.0326    6.3075    0.0000 H   0  0  0  0  0  0  0  0  0  0  0  0
    5.8478   -4.8474    0.0000 H   0  0  0  0  0  0  0  0  0  0  0  0
    7.7411   -6.5902    0.0000 H   0  0  0  0  0  0  0  0  0  0  0  0
    8.3310   -7.1263    0.0000 H   0  0  0  0  0  0  0  0  0  0  0  0
    6.5313   -3.0164    0.0000 H   0  0  0  0  0  0  0  0  0  0  0  0
    5.9153   -2.1366    0.0000 H   0  0  0  0  0  0  0  0  0  0  0  0
   12.2992    6.1999    0.0000 H   0  0  0  0  0  0  0  0  0  0  0  0
   11.2498    6.4280    0.0000 H   0  0  0  0  0  0  0  0  0  0  0  0
    2.9366   -3.6492    0.0000 H   0  0  0  0  0  0  0  0  0  0  0  0
    3.2388   -4.3867    0.0000 H   0  0  0  0  0  0  0  0  0  0  0  0
    4.8876   -4.3358    0.0000 H   0  0  0  0  0  0  0  0  0  0  0  0
    9.5215   -7.3097    0.0000 H   0  0  0  0  0  0  0  0  0  0  0  0
   13.0814    0.0254    0.0000 H   0  0  0  0  0  0  0  0  0  0  0  0
    5.4438   -4.3020    0.0000 H   0  0  0  0  0  0  0  0  0  0  0  0
    5.5616   -3.4332    0.0000 H   0  0  0  0  0  0  0  0  0  0  0  0
    4.6928   -3.3154    0.0000 H   0  0  0  0  0  0  0  0  0  0  0  0
   15.1514    2.5153    0.0000 H   0  0  0  0  0  0  0  0  0  0  0  0
   14.5394    3.3977    0.0000 H   0  0  0  0  0  0  0  0  0  0  0  0
  2 13  1  0  0  0  0
  2 17  1  0  0  0  0
  2 18  1  0  0  0  0
  2 19  2  0  0  0  0
  3 51  1  0  0  0  0
  3 80  1  0  0  0  0
 68  4  1  6  0  0  0
  4172  1  0  0  0  0
 79  5  1  6  0  0  0
  5174  1  0  0  0  0
  6 85  1  0  0  0  0
  6 99  1  0  0  0  0
  7 81  2  0  0  0  0
  8 84  2  0  0  0  0
  9 89  2  0  0  0  0
 92 10  1  1  0  0  0
 10193  1  0  0  0  0
 11 93  2  0  0  0  0
 12 94  2  0  0  0  0
 13 95  1  0  0  0  0
 14 96  2  0  0  0  0
 15 97  2  0  0  0  0
 16103  1  0  0  0  0
 16203  1  0  0  0  0
 17106  1  0  0  0  0
 20 38  1  0  0  0  0
 20 42  1  0  0  0  0
 21 39  1  0  0  0  0
 21 43  2  0  0  0  0
 22 47  2  0  0  0  0
 22 50  1  0  0  0  0
 23 48  1  0  0  0  0
 23 49  2  0  0  0  0
 24 60  1  0  0  0  0
 24 61  2  0  0  0  0
 25 61  1  0  0  0  0
 25 69  1  0  0  0  0
 25 85  1  0  0  0  0
 80 26  1  1  0  0  0
 26101  1  0  0  0  0
 26102  1  0  0  0  0
 27 81  1  0  0  0  0
 27175  1  0  0  0  0
 27176  1  0  0  0  0
 28 84  1  0  0  0  0
 28177  1  0  0  0  0
 28178  1  0  0  0  0
 29 89  1  0  0  0  0
 29184  1  0  0  0  0
 29185  1  0  0  0  0
 30 93  1  0  0  0  0
 30105  1  0  0  0  0
 30190  1  0  0  0  0
 31 94  1  0  0  0  0
 31191  1  0  0  0  0
 31192  1  0  0  0  0
 32 96  1  0  0  0  0
 32196  1  0  0  0  0
 32197  1  0  0  0  0
 33 97  1  0  0  0  0
 33198  1  0  0  0  0
 33199  1  0  0  0  0
 34102  2  0  0  0  0
 34104  1  0  0  0  0
 35101  2  0  0  0  0
 35108  1  0  0  0  0
 36107  1  0  0  0  0
 36108  2  0  0  0  0
 37107  1  0  0  0  0
 37208  1  0  0  0  0
 37209  1  0  0  0  0
 38 39  1  0  0  0  0
 38 41  1  0  0  0  0
 38 52  1  6  0  0  0
 39 44  1  0  0  0  0
 39110  1  1  0  0  0
 51 40  1  1  0  0  0
 40111  1  0  0  0  0
 40112  1  0  0  0  0
 41 46  1  0  0  0  0
 41 62  1  0  0  0  0
 41 63  1  6  0  0  0
 42 46  1  0  0  0  0
 42 53  2  0  0  0  0
 43 45  1  0  0  0  0
 43 54  1  0  0  0  0
 44 45  1  0  0  0  0
 44 64  1  1  0  0  0
 44113  1  0  0  0  0
 45 65  1  0  0  0  0
 45 67  1  1  0  0  0
 46 66  1  6  0  0  0
 46114  1  0  0  0  0
 47 53  1  0  0  0  0
 47 55  1  0  0  0  0
 48 54  2  0  0  0  0
 48 57  1  0  0  0  0
 49 56  1  0  0  0  0
 49 59  1  0  0  0  0
 50 58  1  0  0  0  0
 50 59  2  0  0  0  0
 51 68  1  0  0  0  0
 51115  1  0  0  0  0
 52116  1  0  0  0  0
 52117  1  0  0  0  0
 52118  1  0  0  0  0
 53 70  1  0  0  0  0
 54 72  1  0  0  0  0
 55 58  1  0  0  0  0
 55 71  1  0  0  0  0
 55 75  1  6  0  0  0
 56 57  1  0  0  0  0
 56 76  1  0  0  0  0
 56 77  1  0  0  0  0
 57 73  1  6  0  0  0
 57119  1  0  0  0  0
 58 74  1  6  0  0  0
 58120  1  0  0  0  0
 59121  1  0  0  0  0
 60 69  2  0  0  0  0
 60 78  1  0  0  0  0
 61122  1  0  0  0  0
 62 81  1  0  0  0  0
 62123  1  0  0  0  0
 62124  1  0  0  0  0
 63125  1  0  0  0  0
 63126  1  0  0  0  0
 63127  1  0  0  0  0
 64 84  1  0  0  0  0
 64128  1  0  0  0  0
 64129  1  0  0  0  0
 65 82  1  0  0  0  0
 65130  1  0  0  0  0
 65131  1  0  0  0  0
 66 83  1  0  0  0  0
 66132  1  0  0  0  0
 66133  1  0  0  0  0
 67134  1  0  0  0  0
 67135  1  0  0  0  0
 67136  1  0  0  0  0
 68 79  1  0  0  0  0
 68137  1  0  0  0  0
 69 86  1  0  0  0  0
 70138  1  0  0  0  0
 70139  1  0  0  0  0
 70140  1  0  0  0  0
 71 89  1  0  0  0  0
 71141  1  0  0  0  0
 71142  1  0  0  0  0
 72143  1  0  0  0  0
 72144  1  0  0  0  0
 72145  1  0  0  0  0
 73 87  1  0  0  0  0
 73146  1  0  0  0  0
 73147  1  0  0  0  0
 74 88  1  0  0  0  0
 74148  1  0  0  0  0
 74149  1  0  0  0  0
 75150  1  0  0  0  0
 75151  1  0  0  0  0
 75152  1  0  0  0  0
 76153  1  0  0  0  0
 76154  1  0  0  0  0
 76155  1  0  0  0  0
 77156  1  0  0  0  0
 77157  1  0  0  0  0
 77158  1  0  0  0  0
 78 90  2  0  0  0  0
 78159  1  0  0  0  0
 79 80  1  0  0  0  0
 79160  1  0  0  0  0
 80161  1  0  0  0  0
 82 93  1  0  0  0  0
 82162  1  0  0  0  0
 82163  1  0  0  0  0
 83 94  1  0  0  0  0
 83164  1  0  0  0  0
 83165  1  0  0  0  0
 85 92  1  0  0  0  0
 85166  1  6  0  0  0
 86 91  2  0  0  0  0
 86167  1  0  0  0  0
 87 96  1  0  0  0  0
 87168  1  0  0  0  0
 87169  1  0  0  0  0
 88 97  1  0  0  0  0
 88170  1  0  0  0  0
 88171  1  0  0  0  0
 90 91  1  0  0  0  0
 90 98  1  0  0  0  0
 91100  1  0  0  0  0
 92 95  1  0  0  0  0
 92173  1  0  0  0  0
 95 99  1  0  0  0  0
 95179  1  6  0  0  0
 98180  1  0  0  0  0
 98181  1  0  0  0  0
 98182  1  0  0  0  0
 99103  1  6  0  0  0
 99183  1  0  0  0  0
100186  1  0  0  0  0
100187  1  0  0  0  0
100188  1  0  0  0  0
101104  1  0  0  0  0
102189  1  0  0  0  0
103194  1  0  0  0  0
103195  1  0  0  0  0
104107  2  0  0  0  0
105106  1  0  0  0  0
105200  1  0  0  0  0
105201  1  0  0  0  0
106109  1  1  0  0  0
106202  1  0  0  0  0
108204  1  0  0  0  0
109205  1  0  0  0  0
109206  1  0  0  0  0
109207  1  0  0  0  0
M  CHG  4   1   2  18  -1  20  -1  40  -1
M  END
> <PUBCHEM_COMPOUND_CID>
24971461

> <PUBCHEM_COMPOUND_CANONICALIZED>
1

> <PUBCHEM_CACTVS_COMPLEXITY>
3730

> <PUBCHEM_CACTVS_HBOND_ACCEPTOR>
27

> <PUBCHEM_CACTVS_HBOND_DONOR>
12

> <PUBCHEM_CACTVS_ROTATABLE_BOND>
17

> <PUBCHEM_CACTVS_SUBSKEYS>
AAADcfB//gIAAAAQAAAAAAAAAAAAAWLFixI8QIECAAAWAFgB/gAAHgAQCCAAD7zhnwY38L/MFxCoQydzdICCgC0xEqAB2KE4dJiLeLLA2dGeZAhvlgLbyCf8ucKfiAAAQAAQACAQAACAACAAQAAAAAAAAA==

> <PUBCHEM_IUPAC_OPENEYE_NAME>
cobaltous;(2R,3R,4S,5R)-2-(6-aminopurin-9-yl)-5-methanidyl-tetrahydrofuran-3,4-diol;[(2R,3S,4R,5S)-5-(5,6-dimethylbenzimidazol-1-yl)-4-hydroxy-2-(hydroxymethyl)tetrahydrofuran-3-yl] [(1R)-1-methyl-2-[3-[(1R,2R,3R,5Z,7S,10Z,12S,13S,15Z,17S,18S,19R)-2,13,18-tris(2-amino-2-oxo-ethyl)-7,12,17-tris(3-amino-3-oxo-propyl)-3,5,8,8,13,15,18,19-octamethyl-2,7,12,17-tetrahydro-1H-corrin-24-id-3-yl]propanoylamino]ethyl] phosphate

> <PUBCHEM_IUPAC_CAS_NAME>
(2R,3R,4S,5R)-2-(6-aminopurin-9-yl)-5-methanidyloxolane-3,4-diol;cobalt(2+);[(2R,3S,4R,5S)-5-(5,6-dimethyl-1-benzimidazolyl)-4-hydroxy-2-(hydroxymethyl)-3-oxolanyl] [(2R)-1-[[1-oxo-3-[(1R,2R,3R,5Z,7S,10Z,12S,13S,15Z,17S,18S,19R)-2,13,18-tris(2-amino-2-oxoethyl)-7,12,17-tris(3-amino-3-oxopropyl)-3,5,8,8,13,15,18,19-octamethyl-2,7,12,17-tetrahydro-1H-corrin-24-id-3-yl]propyl]amino]propan-2-yl] phosphate

> <PUBCHEM_IUPAC_NAME_MARKUP>
(2<I>R</I>,3<I>R</I>,4<I>S</I>,5<I>R</I>)-2-(6-aminopurin-9-yl)-5-methanidyloxolane-3,4-diol;cobalt(2+);[(2<I>R</I>,3<I>S</I>,4<I>R</I>,5<I>S</I>)-5-(5,6-dimethylbenzimidazol-1-yl)-4-hydroxy-2-(hydroxymethyl)oxolan-3-yl] [(2<I>R</I>)-1-[3-[(1<I>R</I>,2<I>R</I>,3<I>R</I>,5<I>Z</I>,7<I>S</I>,10<I>Z</I>,12<I>S</I>,13<I>S</I>,15<I>Z</I>,17<I>S</I>,18<I>S</I>,19<I>R</I>)-2,13,18-tris(2-amino-2-oxoethyl)-7,12,17-tris(3-amino-3-oxopropyl)-3,5,8,8,13,15,18,19-octamethyl-2,7,12,17-tetrahydro-1<I>H</I>-corrin-24-id-3-yl]propanoylamino]propan-2-yl] phosphate

> <PUBCHEM_IUPAC_NAME>
(2R,3R,4S,5R)-2-(6-aminopurin-9-yl)-5-methanidyloxolane-3,4-diol;cobalt(2+);[(2R,3S,4R,5S)-5-(5,6-dimethylbenzimidazol-1-yl)-4-hydroxy-2-(hydroxymethyl)oxolan-3-yl] [(2R)-1-[3-[(1R,2R,3R,5Z,7S,10Z,12S,13S,15Z,17S,18S,19R)-2,13,18-tris(2-amino-2-oxoethyl)-7,12,17-tris(3-amino-3-oxopropyl)-3,5,8,8,13,15,18,19-octamethyl-2,7,12,17-tetrahydro-1H-corrin-24-id-3-yl]propanoylamino]propan-2-yl] phosphate

> <PUBCHEM_IUPAC_SYSTEMATIC_NAME>
(2R,3R,4S,5R)-2-(6-aminopurin-9-yl)-5-methanidyl-oxolane-3,4-diol;cobalt(2+);[(2R,3S,4R,5S)-5-(5,6-dimethylbenzimidazol-1-yl)-2-(hydroxymethyl)-4-oxidanyl-oxolan-3-yl] [(2R)-1-[3-[(1R,2R,3R,5Z,7S,10Z,12S,13S,15Z,17S,18S,19R)-2,13,18-tris(2-azanyl-2-oxidanylidene-ethyl)-7,12,17-tris(3-azanyl-3-oxidanylidene-propyl)-3,5,8,8,13,15,18,19-octamethyl-2,7,12,17-tetrahydro-1H-corrin-24-id-3-yl]propanoylamino]propan-2-yl] phosphate

> <PUBCHEM_IUPAC_TRADITIONAL_NAME>
cobaltous;(2R,3R,4S,5R)-2-adenin-9-yl-5-methanidyl-tetrahydrofuran-3,4-diol;[(2R,3S,4R,5S)-5-(5,6-dimethylbenzimidazol-1-yl)-4-hydroxy-2-methylol-tetrahydrofuran-3-yl] [(1R)-1-methyl-2-[3-[(1R,2R,3R,5Z,7S,10Z,12S,13S,15Z,17S,18S,19R)-2,13,18-tris(2-amino-2-keto-ethyl)-7,12,17-tris(3-amino-3-keto-propyl)-3,5,8,8,13,15,18,19-octamethyl-2,7,12,17-tetrahydro-1H-corrin-24-id-3-yl]propanoylamino]ethyl] phosphate

> <PUBCHEM_IUPAC_INCHI>
InChI=1S/C62H90N13O14P.C10H12N5O3.Co/c1-29-20-39-40(21-30(29)2)75(28-70-39)57-52(84)53(41(27-76)87-57)89-90(85,86)88-31(3)26-69-49(83)18-19-59(8)37(22-46(66)80)56-62(11)61(10,25-48(68)82)36(14-17-45(65)79)51(74-62)33(5)55-60(9,24-47(67)81)34(12-15-43(63)77)38(71-55)23-42-58(6,7)35(13-16-44(64)78)50(72-42)32(4)54(59)73-56;1-4-6(16)7(17)10(18-4)15-3-14-5-8(11)12-2-13-9(5)15;/h20-21,23,28,31,34-37,41,52-53,56-57,76,84H,12-19,22,24-27H2,1-11H3,(H15,63,64,65,66,67,68,69,71,72,73,74,77,78,79,80,81,82,83,85,86);2-4,6-7,10,16-17H,1H2,(H2,11,12,13);/q;-1;+2/p-2/t31-,34-,35-,36-,37+,41-,52-,53-,56-,57+,59-,60+,61+,62+;4-,6-,7-,10-;/m11./s1

> <PUBCHEM_IUPAC_INCHIKEY>
ZZXUAMCWBFFCJX-OUCXYWSSSA-L

> <PUBCHEM_EXACT_MASS>
1578.658339

> <PUBCHEM_MOLECULAR_FORMULA>
C72H100CoN18O17P-

> <PUBCHEM_MOLECULAR_WEIGHT>
1579.6

> <PUBCHEM_SMILES>
CC1=CC2=C(C=C1C)N(C=N2)[C@@H]3[C@@H]([C@@H]([C@H](O3)CO)OP(=O)([O-])O[C@H](C)CNC(=O)CC[C@@]4([C@H]([C@@H]5[C@]6([C@@]([C@@H](/C(=C(/C7=N/C(=C\C8=N/C(=C(\C4=N5)/C)/[C@H](C8(C)C)CCC(=O)N)/[C@H]([C@]7(C)CC(=O)N)CCC(=O)N)\C)/[N-]6)CCC(=O)N)(C)CC(=O)N)C)CC(=O)N)C)O.[CH2-][C@@H]1[C@H]([C@H]([C@@H](O1)N2C=NC3=C(N=CN=C32)N)O)O.[Co+2]

> <PUBCHEM_CONNECTIVITY_SMILES>
CC1=CC2=C(C=C1C)N(C=N2)C3C(C(C(O3)CO)OP(=O)([O-])OC(C)CNC(=O)CCC4(C(C5C6(C(C(C(=C(C7=NC(=CC8=NC(=C(C4=N5)C)C(C8(C)C)CCC(=O)N)C(C7(C)CC(=O)N)CCC(=O)N)C)[N-]6)CCC(=O)N)(C)CC(=O)N)C)CC(=O)N)C)O.[CH2-]C1C(C(C(O1)N2C=NC3=C(N=CN=C32)N)O)O.[Co+2]

> <PUBCHEM_CACTVS_TPSA>
571

> <PUBCHEM_MONOISOTOPIC_WEIGHT>
1578.658339

> <PUBCHEM_TOTAL_CHARGE>
-1

> <PUBCHEM_HEAVY_ATOM_COUNT>
109

> <PUBCHEM_ATOM_DEF_STEREO_COUNT>
18

> <PUBCHEM_ATOM_UDEF_STEREO_COUNT>
0

> <PUBCHEM_BOND_DEF_STEREO_COUNT>
3

> <PUBCHEM_BOND_UDEF_STEREO_COUNT>
0

> <PUBCHEM_ISOTOPIC_ATOM_COUNT>
0

> <PUBCHEM_COMPONENT_COUNT>
3

> <PUBCHEM_CACTVS_TAUTO_COUNT>
-1

> <PUBCHEM_NONSTANDARDBOND>
1  20  6
1  21  6
1  22  6
1  23  6
1  24  6
1  40  6

> <PUBCHEM_COORDINATE_TYPE>
1
5
255

> <PUBCHEM_BONDANNOTATIONS>
92  10  5
101  104  8
104  107  8
106  109  5
24  60  8
24  61  8
25  61  8
25  69  8
26  101  8
26  102  8
80  26  5
34  102  8
34  104  8
35  101  8
35  108  8
36  107  8
36  108  8
38  52  6
39  110  5
68  4  6
51  40  5
41  63  6
44  64  5
45  67  5
46  66  6
79  5  6
55  75  6
57  73  6
58  74  6
60  69  8
60  78  8
69  86  8
78  90  8
85  166  6
86  91  8
90  91  8
95  179  6
99  103  6

$$$$
91820207
  -OEChem-04182609202D

209217  0     1  0  0  0  0  0999 V2000
    7.2438    1.8817    0.0000 Co  0  0  0  0  0  0  0  0  0  0  0  0
    4.8914   -5.9248    0.0000 P   0  0  3  0  0  0  0  0  0  0  0  0
    9.5002    2.9905    0.0000 O   0  0  0  0  0  0  0  0  0  0  0  0
    8.3573    0.6690    0.0000 O   0  0  0  0  0  0  0  0  0  0  0  0
   10.8674    1.0122    0.0000 O   0  0  0  0  0  0  0  0  0  0  0  0
    8.6082   -4.7945    0.0000 O   0  0  0  0  0  0  0  0  0  0  0  0
    3.2166    2.6458    0.0000 O   0  0  0  0  0  0  0  0  0  0  0  0
    3.8026    1.8720    0.0000 O   0  0  0  0  0  0  0  0  0  0  0  0
    7.9632    5.8987    0.0000 O   0  0  0  0  0  0  0  0  0  0  0  0
    6.1602   -4.3119    0.0000 O   0  0  0  0  0  0  0  0  0  0  0  0
    5.3168   -3.1586    0.0000 O   0  0  0  0  0  0  0  0  0  0  0  0
    5.2258    6.9665    0.0000 O   0  0  0  0  0  0  0  0  0  0  0  0
    6.3500   -5.9238    0.0000 O   0  0  0  0  0  0  0  0  0  0  0  0
    6.4772   -1.2516    0.0000 O   0  0  0  0  0  0  0  0  0  0  0  0
   12.2363    4.3613    0.0000 O   0  0  0  0  0  0  0  0  0  0  0  0
    9.3326   -6.7191    0.0000 O   0  0  0  0  0  0  0  0  0  0  0  0
    4.1460   -5.3482    0.0000 O   0  0  0  0  0  0  0  0  0  0  0  0
    4.3345   -6.7554    0.0000 O   0  5  0  0  0  0  0  0  0  0  0  0
    4.8244   -6.9225    0.0000 O   0  0  0  0  0  0  0  0  0  0  0  0
    6.3511    2.7265    0.0000 N   0  0  0  0  0  0  0  0  0  0  0  0
    6.2696    0.9555    0.0000 N   0  5  0  0  0  0  0  0  0  0  0  0
    8.1233    2.8092    0.0000 N   0  0  0  0  0  0  0  0  0  0  0  0
    8.0613    1.0577    0.0000 N   0  0  0  0  0  0  0  0  0  0  0  0
    8.3603   -1.6098    0.0000 N   0  0  0  0  0  0  0  0  0  0  0  0
    8.3532   -3.1346    0.0000 N   0  0  0  0  0  0  0  0  0  0  0  0
   11.2532    2.6703    0.0000 N   0  0  0  0  0  0  0  0  0  0  0  0
    2.5760    4.2550    0.0000 N   0  0  0  0  0  0  0  0  0  0  0  0
    2.4374    0.8060    0.0000 N   0  0  0  0  0  0  0  0  0  0  0  0
    9.5513    6.5900    0.0000 N   0  0  0  0  0  0  0  0  0  0  0  0
    3.6538   -2.9040    0.0000 N   0  0  0  0  0  0  0  0  0  0  0  0
    3.5149    6.6972    0.0000 N   0  0  0  0  0  0  0  0  0  0  0  0
    6.4772   -2.3987    0.0000 N   0  0  0  0  0  0  0  0  0  0  0  0
   11.7086    6.0111    0.0000 N   0  0  0  0  0  0  0  0  0  0  0  0
   12.5756    3.5876    0.0000 N   0  0  0  0  0  0  0  0  0  0  0  0
   12.1256    1.0699    0.0000 N   0  0  0  0  0  0  0  0  0  0  0  0
   13.8517    1.2133    0.0000 N   0  0  0  0  0  0  0  0  0  0  0  0
   14.5907    2.7798    0.0000 N   0  0  0  0  0  0  0  0  0  0  0  0
    5.4857    2.6028    0.0000 C   0  0  1  0  0  0  0  0  0  0  0  0
    5.4455    1.0381    0.0000 C   0  0  1  0  0  0  0  0  0  0  0  0
    7.7340    2.7534    0.0000 C   0  5  0  0  0  0  0  0  0  0  0  0
    5.0748    3.3854    0.0000 C   0  0  2  0  0  0  0  0  0  0  0  0
    6.4544    3.6128    0.0000 C   0  0  0  0  0  0  0  0  0  0  0  0
    6.4141    0.1108    0.0000 C   0  0  0  0  0  0  0  0  0  0  0  0
    5.0334    0.2957    0.0000 C   0  0  1  0  0  0  0  0  0  0  0  0
    5.6510   -0.3219    0.0000 C   0  0  2  0  0  0  0  0  0  0  0  0
    5.6923    4.0030    0.0000 C   0  0  1  0  0  0  0  0  0  0  0  0
    7.9994    3.6334    0.0000 C   0  0  0  0  0  0  0  0  0  0  0  0
    7.9581    0.1304    0.0000 C   0  0  0  0  0  0  0  0  0  0  0  0
    8.9474    1.1610    0.0000 C   0  0  0  0  0  0  0  0  0  0  0  0
    8.9474    2.6853    0.0000 C   0  0  0  0  0  0  0  0  0  0  0  0
    8.6775    2.4220    0.0000 C   0  0  2  0  0  0  0  0  0  0  0  0
    4.5118    2.3758    0.0000 C   0  0  0  0  0  0  0  0  0  0  0  0
    7.2372    4.0238    0.0000 C   0  0  0  0  0  0  0  0  0  0  0  0
    7.1753   -0.2806    0.0000 C   0  0  0  0  0  0  0  0  0  0  0  0
    8.7615    4.0649    0.0000 C   0  0  2  0  0  0  0  0  0  0  0  0
    9.3583    0.3782    0.0000 C   0  0  0  0  0  0  0  0  0  0  0  0
    8.7408   -0.2393    0.0000 C   0  0  2  0  0  0  0  0  0  0  0  0
    9.3789    3.4474    0.0000 C   0  0  2  0  0  0  0  0  0  0  0  0
    9.3790    1.9232    0.0000 C   0  0  0  0  0  0  0  0  0  0  0  0
    9.2551   -1.9052    0.0000 C   0  0  0  0  0  0  0  0  0  0  0  0
    7.8028   -2.3696    0.0000 C   0  0  0  0  0  0  0  0  0  0  0  0
    4.2900    4.0051    0.0000 C   0  0  0  0  0  0  0  0  0  0  0  0
    4.2429    2.8305    0.0000 C   0  0  0  0  0  0  0  0  0  0  0  0
    4.0432    0.1568    0.0000 C   0  0  0  0  0  0  0  0  0  0  0  0
    5.5244   -1.2557    0.0000 C   0  0  0  0  0  0  0  0  0  0  0  0
    5.5368    4.9909    0.0000 C   0  0  0  0  0  0  0  0  0  0  0  0
    4.7034   -0.6415    0.0000 C   0  0  0  0  0  0  0  0  0  0  0  0
    8.9640    1.4639    0.0000 C   0  0  2  0  0  0  0  0  0  0  0  0
    9.2508   -2.8475    0.0000 C   0  0  0  0  0  0  0  0  0  0  0  0
    7.1871    5.0225    0.0000 C   0  0  0  0  0  0  0  0  0  0  0  0
    9.3559    4.8690    0.0000 C   0  0  0  0  0  0  0  0  0  0  0  0
    7.1352   -1.2798    0.0000 C   0  0  0  0  0  0  0  0  0  0  0  0
    8.9996   -1.2052    0.0000 C   0  0  0  0  0  0  0  0  0  0  0  0
   10.3314    3.7520    0.0000 C   0  0  0  0  0  0  0  0  0  0  0  0
    8.1804    4.8788    0.0000 C   0  0  0  0  0  0  0  0  0  0  0  0
   10.3573    0.3320    0.0000 C   0  0  0  0  0  0  0  0  0  0  0  0
   10.0697   -0.3245    0.0000 C   0  0  0  0  0  0  0  0  0  0  0  0
   10.0733   -1.4378    0.0000 C   0  0  0  0  0  0  0  0  0  0  0  0
    9.9637    1.4403    0.0000 C   0  0  2  0  0  0  0  0  0  0  0  0
   10.2951    2.3838    0.0000 C   0  0  1  0  0  0  0  0  0  0  0  0
    3.3609    3.6353    0.0000 C   0  0  0  0  0  0  0  0  0  0  0  0
    4.6524   -1.6130    0.0000 C   0  0  0  0  0  0  0  0  0  0  0  0
    4.6036    5.3501    0.0000 C   0  0  0  0  0  0  0  0  0  0  0  0
    3.4277    0.9449    0.0000 C   0  0  0  0  0  0  0  0  0  0  0  0
    8.0579   -4.0295    0.0000 C   0  0  2  0  0  0  0  0  0  0  0  0
   10.0647   -3.3225    0.0000 C   0  0  0  0  0  0  0  0  0  0  0  0
    8.2925   -1.9123    0.0000 C   0  0  0  0  0  0  0  0  0  0  0  0
   10.5438    4.7292    0.0000 C   0  0  0  0  0  0  0  0  0  0  0  0
    8.9568    5.7859    0.0000 C   0  0  0  0  0  0  0  0  0  0  0  0
   10.8873   -1.9127    0.0000 C   0  0  0  0  0  0  0  0  0  0  0  0
   10.8829   -2.8551    0.0000 C   0  0  0  0  0  0  0  0  0  0  0  0
    7.1602   -4.3166    0.0000 C   0  0  1  0  0  0  0  0  0  0  0  0
    4.5258   -2.5468    0.0000 C   0  0  0  0  0  0  0  0  0  0  0  0
    4.4481    6.3380    0.0000 C   0  0  0  0  0  0  0  0  0  0  0  0
    7.1559   -5.2589    0.0000 C   0  0  1  0  0  0  0  0  0  0  0  0
    7.2963   -1.8252    0.0000 C   0  0  0  0  0  0  0  0  0  0  0  0
   11.4962    5.0339    0.0000 C   0  0  0  0  0  0  0  0  0  0  0  0
   11.7556   -1.4167    0.0000 C   0  0  0  0  0  0  0  0  0  0  0  0
    8.0508   -5.5543    0.0000 C   0  0  1  0  0  0  0  0  0  0  0  0
   11.7466   -3.3591    0.0000 C   0  0  0  0  0  0  0  0  0  0  0  0
   12.0429    2.0665    0.0000 C   0  0  0  0  0  0  0  0  0  0  0  0
   11.5818    3.6085    0.0000 C   0  0  0  0  0  0  0  0  0  0  0  0
    8.3554   -6.5068    0.0000 C   0  0  0  0  0  0  0  0  0  0  0  0
   12.8646    2.6364    0.0000 C   0  0  0  0  0  0  0  0  0  0  0  0
    3.5272   -3.8379    0.0000 C   0  0  0  0  0  0  0  0  0  0  0  0
    4.2726   -4.4144    0.0000 C   0  0  2  0  0  0  0  0  0  0  0  0
   13.7690    2.2098    0.0000 C   0  0  0  0  0  0  0  0  0  0  0  0
   13.0301    0.6433    0.0000 C   0  0  0  0  0  0  0  0  0  0  0  0
    5.0683   -3.8087    0.0000 C   0  0  0  0  0  0  0  0  0  0  0  0
    4.6254    1.2617    0.0000 H   0  0  0  0  0  0  0  0  0  0  0  0
    7.1141    2.7463    0.0000 H   0  0  0  0  0  0  0  0  0  0  0  0
    7.4180    3.2868    0.0000 H   0  0  0  0  0  0  0  0  0  0  0  0
    4.6825    0.8067    0.0000 H   0  0  0  0  0  0  0  0  0  0  0  0
    6.1944    4.3667    0.0000 H   0  0  0  0  0  0  0  0  0  0  0  0
    8.5950    3.0365    0.0000 H   0  0  0  0  0  0  0  0  0  0  0  0
    4.3711    2.9797    0.0000 H   0  0  0  0  0  0  0  0  0  0  0  0
    3.9080    2.2352    0.0000 H   0  0  0  0  0  0  0  0  0  0  0  0
    4.6525    1.7720    0.0000 H   0  0  0  0  0  0  0  0  0  0  0  0
    8.2649   -0.6366    0.0000 H   0  0  0  0  0  0  0  0  0  0  0  0
    9.7700    2.9663    0.0000 H   0  0  0  0  0  0  0  0  0  0  0  0
    9.9990    1.9180    0.0000 H   0  0  0  0  0  0  0  0  0  0  0  0
    7.1829   -2.3668    0.0000 H   0  0  0  0  0  0  0  0  0  0  0  0
    4.7529    4.4176    0.0000 H   0  0  0  0  0  0  0  0  0  0  0  0
    3.9641    4.5326    0.0000 H   0  0  0  0  0  0  0  0  0  0  0  0
    3.8988    3.3463    0.0000 H   0  0  0  0  0  0  0  0  0  0  0  0
    3.7271    2.4865    0.0000 H   0  0  0  0  0  0  0  0  0  0  0  0
    4.5869    2.3147    0.0000 H   0  0  0  0  0  0  0  0  0  0  0  0
    3.4956   -0.1342    0.0000 H   0  0  0  0  0  0  0  0  0  0  0  0
    4.2346   -0.4330    0.0000 H   0  0  0  0  0  0  0  0  0  0  0  0
    5.6562   -1.8615    0.0000 H   0  0  0  0  0  0  0  0  0  0  0  0
    6.1439   -1.2310    0.0000 H   0  0  0  0  0  0  0  0  0  0  0  0
    6.1567    4.9794    0.0000 H   0  0  0  0  0  0  0  0  0  0  0  0
    5.6557    5.5994    0.0000 H   0  0  0  0  0  0  0  0  0  0  0  0
    4.5052   -0.0540    0.0000 H   0  0  0  0  0  0  0  0  0  0  0  0
    4.1160   -0.8397    0.0000 H   0  0  0  0  0  0  0  0  0  0  0  0
    4.9016   -1.2290    0.0000 H   0  0  0  0  0  0  0  0  0  0  0  0
    8.3541    1.5753    0.0000 H   0  0  0  0  0  0  0  0  0  0  0  0
    7.8063    5.0536    0.0000 H   0  0  0  0  0  0  0  0  0  0  0  0
    7.1560    5.6417    0.0000 H   0  0  0  0  0  0  0  0  0  0  0  0
    6.5679    4.9915    0.0000 H   0  0  0  0  0  0  0  0  0  0  0  0
    9.7829    4.4195    0.0000 H   0  0  0  0  0  0  0  0  0  0  0  0
    9.8728    5.2115    0.0000 H   0  0  0  0  0  0  0  0  0  0  0  0
    6.5157   -1.2550    0.0000 H   0  0  0  0  0  0  0  0  0  0  0  0
    7.1104   -1.8993    0.0000 H   0  0  0  0  0  0  0  0  0  0  0  0
    7.7548   -1.3046    0.0000 H   0  0  0  0  0  0  0  0  0  0  0  0
    9.3553   -1.7131    0.0000 H   0  0  0  0  0  0  0  0  0  0  0  0
    9.5615   -0.9432    0.0000 H   0  0  0  0  0  0  0  0  0  0  0  0
   10.4148    3.1377    0.0000 H   0  0  0  0  0  0  0  0  0  0  0  0
   10.9509    3.7276    0.0000 H   0  0  0  0  0  0  0  0  0  0  0  0
    8.6850    5.2390    0.0000 H   0  0  0  0  0  0  0  0  0  0  0  0
    7.8202    5.3834    0.0000 H   0  0  0  0  0  0  0  0  0  0  0  0
    7.6758    4.5185    0.0000 H   0  0  0  0  0  0  0  0  0  0  0  0
   10.3286   -0.2873    0.0000 H   0  0  0  0  0  0  0  0  0  0  0  0
   10.9766    0.3033    0.0000 H   0  0  0  0  0  0  0  0  0  0  0  0
   10.3859    0.9513    0.0000 H   0  0  0  0  0  0  0  0  0  0  0  0
    9.6340   -0.7656    0.0000 H   0  0  0  0  0  0  0  0  0  0  0  0
   10.5108   -0.7603    0.0000 H   0  0  0  0  0  0  0  0  0  0  0  0
   10.5055    0.1165    0.0000 H   0  0  0  0  0  0  0  0  0  0  0  0
   10.0762   -0.8178    0.0000 H   0  0  0  0  0  0  0  0  0  0  0  0
    9.8206    0.8371    0.0000 H   0  0  0  0  0  0  0  0  0  0  0  0
   10.7230    1.9352    0.0000 H   0  0  0  0  0  0  0  0  0  0  0  0
    4.5205   -1.0071    0.0000 H   0  0  0  0  0  0  0  0  0  0  0  0
    4.0329   -1.6376    0.0000 H   0  0  0  0  0  0  0  0  0  0  0  0
    3.9837    5.3615    0.0000 H   0  0  0  0  0  0  0  0  0  0  0  0
    4.4847    4.7416    0.0000 H   0  0  0  0  0  0  0  0  0  0  0  0
    8.8980   -3.9004    0.0000 H   0  0  0  0  0  0  0  0  0  0  0  0
   10.0618   -3.9425    0.0000 H   0  0  0  0  0  0  0  0  0  0  0  0
    8.0975   -2.5008    0.0000 H   0  0  0  0  0  0  0  0  0  0  0  0
    8.8202   -2.2378    0.0000 H   0  0  0  0  0  0  0  0  0  0  0  0
   10.4603    5.3436    0.0000 H   0  0  0  0  0  0  0  0  0  0  0  0
    9.9243    4.7537    0.0000 H   0  0  0  0  0  0  0  0  0  0  0  0
    7.7381    0.6403    0.0000 H   0  0  0  0  0  0  0  0  0  0  0  0
    6.9714   -3.7260    0.0000 H   0  0  0  0  0  0  0  0  0  0  0  0
   11.3774    1.3648    0.0000 H   0  0  0  0  0  0  0  0  0  0  0  0
    2.0000    4.0258    0.0000 H   0  0  0  0  0  0  0  0  0  0  0  0
    2.6655    4.8686    0.0000 H   0  0  0  0  0  0  0  0  0  0  0  0
    2.2050    0.2312    0.0000 H   0  0  0  0  0  0  0  0  0  0  0  0
    2.0558    1.2947    0.0000 H   0  0  0  0  0  0  0  0  0  0  0  0
    7.3127   -6.0944    0.0000 H   0  0  0  0  0  0  0  0  0  0  0  0
   12.0631   -1.9551    0.0000 H   0  0  0  0  0  0  0  0  0  0  0  0
   12.2939   -1.1092    0.0000 H   0  0  0  0  0  0  0  0  0  0  0  0
   11.4480   -0.8783    0.0000 H   0  0  0  0  0  0  0  0  0  0  0  0
    8.6627   -5.6541    0.0000 H   0  0  0  0  0  0  0  0  0  0  0  0
    9.3038    7.1585    0.0000 H   0  0  0  0  0  0  0  0  0  0  0  0
   10.1673    6.5201    0.0000 H   0  0  0  0  0  0  0  0  0  0  0  0
   11.4342   -3.8946    0.0000 H   0  0  0  0  0  0  0  0  0  0  0  0
   12.2821   -3.6715    0.0000 H   0  0  0  0  0  0  0  0  0  0  0  0
   12.0591   -2.8236    0.0000 H   0  0  0  0  0  0  0  0  0  0  0  0
   11.2284    4.1179    0.0000 H   0  0  0  0  0  0  0  0  0  0  0  0
    3.1634   -2.5247    0.0000 H   0  0  0  0  0  0  0  0  0  0  0  0
    3.4184    7.3097    0.0000 H   0  0  0  0  0  0  0  0  0  0  0  0
    3.0326    6.3075    0.0000 H   0  0  0  0  0  0  0  0  0  0  0  0
    5.8478   -4.8474    0.0000 H   0  0  0  0  0  0  0  0  0  0  0  0
    7.7411   -6.5902    0.0000 H   0  0  0  0  0  0  0  0  0  0  0  0
    8.3310   -7.1263    0.0000 H   0  0  0  0  0  0  0  0  0  0  0  0
    6.5313   -3.0164    0.0000 H   0  0  0  0  0  0  0  0  0  0  0  0
    5.9153   -2.1366    0.0000 H   0  0  0  0  0  0  0  0  0  0  0  0
   12.2992    6.1999    0.0000 H   0  0  0  0  0  0  0  0  0  0  0  0
   11.2498    6.4280    0.0000 H   0  0  0  0  0  0  0  0  0  0  0  0
    2.9366   -3.6492    0.0000 H   0  0  0  0  0  0  0  0  0  0  0  0
    3.2388   -4.3867    0.0000 H   0  0  0  0  0  0  0  0  0  0  0  0
    4.8876   -4.3358    0.0000 H   0  0  0  0  0  0  0  0  0  0  0  0
    9.5215   -7.3097    0.0000 H   0  0  0  0  0  0  0  0  0  0  0  0
   13.0814    0.0254    0.0000 H   0  0  0  0  0  0  0  0  0  0  0  0
    5.4438   -4.3020    0.0000 H   0  0  0  0  0  0  0  0  0  0  0  0
    5.5616   -3.4332    0.0000 H   0  0  0  0  0  0  0  0  0  0  0  0
    4.6928   -3.3154    0.0000 H   0  0  0  0  0  0  0  0  0  0  0  0
   15.1514    2.5153    0.0000 H   0  0  0  0  0  0  0  0  0  0  0  0
   14.5394    3.3977    0.0000 H   0  0  0  0  0  0  0  0  0  0  0  0
  2 13  1  0  0  0  0
  2 17  1  0  0  0  0
  2 18  1  0  0  0  0
  2 19  2  0  0  0  0
  3 51  1  0  0  0  0
  3 80  1  0  0  0  0
 68  4  1  6  0  0  0
  4172  1  0  0  0  0
 79  5  1  6  0  0  0
  5174  1  0  0  0  0
  6 85  1  0  0  0  0
  6 99  1  0  0  0  0
  7 81  2  0  0  0  0
  8 84  2  0  0  0  0
  9 89  2  0  0  0  0
 92 10  1  1  0  0  0
 10193  1  0  0  0  0
 11 93  2  0  0  0  0
 12 94  2  0  0  0  0
 13 95  1  0  0  0  0
 14 96  2  0  0  0  0
 15 97  2  0  0  0  0
 16103  1  0  0  0  0
 16203  1  0  0  0  0
 17106  1  0  0  0  0
 20 38  1  0  0  0  0
 20 42  2  0  0  0  0
 21 39  1  0  0  0  0
 21 43  1  0  0  0  0
 22 47  1  0  0  0  0
 22 50  2  0  0  0  0
 23 48  2  0  0  0  0
 23 49  1  0  0  0  0
 24 60  1  0  0  0  0
 24 61  2  0  0  0  0
 25 61  1  0  0  0  0
 25 69  1  0  0  0  0
 25 85  1  0  0  0  0
 80 26  1  1  0  0  0
 26101  1  0  0  0  0
 26102  1  0  0  0  0
 27 81  1  0  0  0  0
 27175  1  0  0  0  0
 27176  1  0  0  0  0
 28 84  1  0  0  0  0
 28177  1  0  0  0  0
 28178  1  0  0  0  0
 29 89  1  0  0  0  0
 29184  1  0  0  0  0
 29185  1  0  0  0  0
 30 93  1  0  0  0  0
 30105  1  0  0  0  0
 30190  1  0  0  0  0
 31 94  1  0  0  0  0
 31191  1  0  0  0  0
 31192  1  0  0  0  0
 32 96  1  0  0  0  0
 32196  1  0  0  0  0
 32197  1  0  0  0  0
 33 97  1  0  0  0  0
 33198  1  0  0  0  0
 33199  1  0  0  0  0
 34102  2  0  0  0  0
 34104  1  0  0  0  0
 35101  2  0  0  0  0
 35108  1  0  0  0  0
 36107  1  0  0  0  0
 36108  2  0  0  0  0
 37107  1  0  0  0  0
 37208  1  0  0  0  0
 37209  1  0  0  0  0
 38 39  1  0  0  0  0
 38 41  1  0  0  0  0
 38 52  1  6  0  0  0
 39 44  1  0  0  0  0
 39110  1  1  0  0  0
 51 40  1  1  0  0  0
 40111  1  0  0  0  0
 40112  1  0  0  0  0
 41 46  1  0  0  0  0
 41 62  1  0  0  0  0
 41 63  1  6  0  0  0
 42 46  1  0  0  0  0
 42 53  1  0  0  0  0
 43 45  1  0  0  0  0
 43 54  2  0  0  0  0
 44 45  1  0  0  0  0
 44 64  1  1  0  0  0
 44113  1  0  0  0  0
 45 65  1  0  0  0  0
 45 67  1  6  0  0  0
 46 66  1  6  0  0  0
 46114  1  0  0  0  0
 47 53  2  0  0  0  0
 47 55  1  0  0  0  0
 48 54  1  0  0  0  0
 48 57  1  0  0  0  0
 49 56  1  0  0  0  0
 49 59  2  0  0  0  0
 50 58  1  0  0  0  0
 50 59  1  0  0  0  0
 51 68  1  0  0  0  0
 51115  1  0  0  0  0
 52116  1  0  0  0  0
 52117  1  0  0  0  0
 52118  1  0  0  0  0
 53 70  1  0  0  0  0
 54 72  1  0  0  0  0
 55 58  1  0  0  0  0
 55 71  1  0  0  0  0
 55 75  1  6  0  0  0
 56 57  1  0  0  0  0
 56 76  1  0  0  0  0
 56 77  1  0  0  0  0
 57 73  1  6  0  0  0
 57119  1  0  0  0  0
 58 74  1  6  0  0  0
 58120  1  0  0  0  0
 59121  1  0  0  0  0
 60 69  2  0  0  0  0
 60 78  1  0  0  0  0
 61122  1  0  0  0  0
 62 81  1  0  0  0  0
 62123  1  0  0  0  0
 62124  1  0  0  0  0
 63125  1  0  0  0  0
 63126  1  0  0  0  0
 63127  1  0  0  0  0
 64 84  1  0  0  0  0
 64128  1  0  0  0  0
 64129  1  0  0  0  0
 65 82  1  0  0  0  0
 65130  1  0  0  0  0
 65131  1  0  0  0  0
 66 83  1  0  0  0  0
 66132  1  0  0  0  0
 66133  1  0  0  0  0
 67134  1  0  0  0  0
 67135  1  0  0  0  0
 67136  1  0  0  0  0
 68 79  1  0  0  0  0
 68137  1  0  0  0  0
 69 86  1  0  0  0  0
 70138  1  0  0  0  0
 70139  1  0  0  0  0
 70140  1  0  0  0  0
 71 89  1  0  0  0  0
 71141  1  0  0  0  0
 71142  1  0  0  0  0
 72143  1  0  0  0  0
 72144  1  0  0  0  0
 72145  1  0  0  0  0
 73 87  1  0  0  0  0
 73146  1  0  0  0  0
 73147  1  0  0  0  0
 74 88  1  0  0  0  0
 74148  1  0  0  0  0
 74149  1  0  0  0  0
 75150  1  0  0  0  0
 75151  1  0  0  0  0
 75152  1  0  0  0  0
 76153  1  0  0  0  0
 76154  1  0  0  0  0
 76155  1  0  0  0  0
 77156  1  0  0  0  0
 77157  1  0  0  0  0
 77158  1  0  0  0  0
 78 90  2  0  0  0  0
 78159  1  0  0  0  0
 79 80  1  0  0  0  0
 79160  1  0  0  0  0
 80161  1  0  0  0  0
 82 93  1  0  0  0  0
 82162  1  0  0  0  0
 82163  1  0  0  0  0
 83 94  1  0  0  0  0
 83164  1  0  0  0  0
 83165  1  0  0  0  0
 85 92  1  0  0  0  0
 85166  1  6  0  0  0
 86 91  2  0  0  0  0
 86167  1  0  0  0  0
 87 96  1  0  0  0  0
 87168  1  0  0  0  0
 87169  1  0  0  0  0
 88 97  1  0  0  0  0
 88170  1  0  0  0  0
 88171  1  0  0  0  0
 90 91  1  0  0  0  0
 90 98  1  0  0  0  0
 91100  1  0  0  0  0
 92 95  1  0  0  0  0
 92173  1  0  0  0  0
 95 99  1  0  0  0  0
 95179  1  6  0  0  0
 98180  1  0  0  0  0
 98181  1  0  0  0  0
 98182  1  0  0  0  0
 99103  1  6  0  0  0
 99183  1  0  0  0  0
100186  1  0  0  0  0
100187  1  0  0  0  0
100188  1  0  0  0  0
101104  1  0  0  0  0
102189  1  0  0  0  0
103194  1  0  0  0  0
103195  1  0  0  0  0
104107  2  0  0  0  0
105106  1  0  0  0  0
105200  1  0  0  0  0
105201  1  0  0  0  0
106109  1  6  0  0  0
106202  1  0  0  0  0
108204  1  0  0  0  0
109205  1  0  0  0  0
109206  1  0  0  0  0
109207  1  0  0  0  0
M  CHG  3  18  -1  21  -1  40  -1
M  END
> <PUBCHEM_COMPOUND_CID>
91820207

> <PUBCHEM_COMPOUND_CANONICALIZED>
1

> <PUBCHEM_CACTVS_COMPLEXITY>
3730

> <PUBCHEM_CACTVS_HBOND_ACCEPTOR>
27

> <PUBCHEM_CACTVS_HBOND_DONOR>
12

> <PUBCHEM_CACTVS_ROTATABLE_BOND>
17

> <PUBCHEM_CACTVS_SUBSKEYS>
AAADcfB//gIAAAAQAAAAAAAAAAAAAWLFixI8QIECAAAQAFgB/gAAHgAQCCAAD7zhnwY38L/MFxCoQydzdICCgC0xEqAB2KE4dJiLeLLA2dGeZAhvlgLbyCf8ucKfiAAAQAAQACAQAACAACAAQAAAAAAAAA==

> <PUBCHEM_IUPAC_OPENEYE_NAME>
(2R,3R,4S,5R)-2-(6-aminopurin-9-yl)-5-methanidyl-tetrahydrofuran-3,4-diol;cobalt;[(2R,3S,4R,5S)-5-(5,6-dimethylbenzimidazol-1-yl)-4-hydroxy-2-(hydroxymethyl)tetrahydrofuran-3-yl] [(1S)-1-methyl-2-[3-[(1R,2R,3S,4Z,7S,9Z,12S,13S,14Z,17S,18S,19R)-2,13,18-tris(2-amino-2-oxo-ethyl)-7,12,17-tris(3-amino-3-oxo-propyl)-3,5,8,8,13,15,18,19-octamethyl-2,7,12,17-tetrahydro-1H-corrin-21-id-3-yl]propanoylamino]ethyl] phosphate

> <PUBCHEM_IUPAC_CAS_NAME>
(2R,3R,4S,5R)-2-(6-aminopurin-9-yl)-5-methanidyloxolane-3,4-diol;cobalt;[(2R,3S,4R,5S)-5-(5,6-dimethyl-1-benzimidazolyl)-4-hydroxy-2-(hydroxymethyl)-3-oxolanyl] [(2S)-1-[[1-oxo-3-[(1R,2R,3S,4Z,7S,9Z,12S,13S,14Z,17S,18S,19R)-2,13,18-tris(2-amino-2-oxoethyl)-7,12,17-tris(3-amino-3-oxopropyl)-3,5,8,8,13,15,18,19-octamethyl-2,7,12,17-tetrahydro-1H-corrin-21-id-3-yl]propyl]amino]propan-2-yl] phosphate

> <PUBCHEM_IUPAC_NAME_MARKUP>
(2<I>R</I>,3<I>R</I>,4<I>S</I>,5<I>R</I>)-2-(6-aminopurin-9-yl)-5-methanidyloxolane-3,4-diol;cobalt;[(2<I>R</I>,3<I>S</I>,4<I>R</I>,5<I>S</I>)-5-(5,6-dimethylbenzimidazol-1-yl)-4-hydroxy-2-(hydroxymethyl)oxolan-3-yl] [(2<I>S</I>)-1-[3-[(1<I>R</I>,2<I>R</I>,3<I>S</I>,4<I>Z</I>,7<I>S</I>,9<I>Z</I>,12<I>S</I>,13<I>S</I>,14<I>Z</I>,17<I>S</I>,18<I>S</I>,19<I>R</I>)-2,13,18-tris(2-amino-2-oxoethyl)-7,12,17-tris(3-amino-3-oxopropyl)-3,5,8,8,13,15,18,19-octamethyl-2,7,12,17-tetrahydro-1<I>H</I>-corrin-21-id-3-yl]propanoylamino]propan-2-yl] phosphate

> <PUBCHEM_IUPAC_NAME>
(2R,3R,4S,5R)-2-(6-aminopurin-9-yl)-5-methanidyloxolane-3,4-diol;cobalt;[(2R,3S,4R,5S)-5-(5,6-dimethylbenzimidazol-1-yl)-4-hydroxy-2-(hydroxymethyl)oxolan-3-yl] [(2S)-1-[3-[(1R,2R,3S,4Z,7S,9Z,12S,13S,14Z,17S,18S,19R)-2,13,18-tris(2-amino-2-oxoethyl)-7,12,17-tris(3-amino-3-oxopropyl)-3,5,8,8,13,15,18,19-octamethyl-2,7,12,17-tetrahydro-1H-corrin-21-id-3-yl]propanoylamino]propan-2-yl] phosphate

> <PUBCHEM_IUPAC_SYSTEMATIC_NAME>
(2R,3R,4S,5R)-2-(6-aminopurin-9-yl)-5-methanidyl-oxolane-3,4-diol;cobalt;[(2R,3S,4R,5S)-5-(5,6-dimethylbenzimidazol-1-yl)-2-(hydroxymethyl)-4-oxidanyl-oxolan-3-yl] [(2S)-1-[3-[(1R,2R,3S,4Z,7S,9Z,12S,13S,14Z,17S,18S,19R)-2,13,18-tris(2-azanyl-2-oxidanylidene-ethyl)-7,12,17-tris(3-azanyl-3-oxidanylidene-propyl)-3,5,8,8,13,15,18,19-octamethyl-2,7,12,17-tetrahydro-1H-corrin-21-id-3-yl]propanoylamino]propan-2-yl] phosphate

> <PUBCHEM_IUPAC_TRADITIONAL_NAME>
(2R,3R,4S,5R)-2-adenin-9-yl-5-methanidyl-tetrahydrofuran-3,4-diol;cobalt;[(2R,3S,4R,5S)-5-(5,6-dimethylbenzimidazol-1-yl)-4-hydroxy-2-methylol-tetrahydrofuran-3-yl] [(1S)-1-methyl-2-[3-[(1R,2R,3S,4Z,7S,9Z,12S,13S,14Z,17S,18S,19R)-2,13,18-tris(2-amino-2-keto-ethyl)-7,12,17-tris(3-amino-3-keto-propyl)-3,5,8,8,13,15,18,19-octamethyl-2,7,12,17-tetrahydro-1H-corrin-21-id-3-yl]propanoylamino]ethyl] phosphate

> <PUBCHEM_IUPAC_INCHI>
InChI=1S/C62H90N13O14P.C10H12N5O3.Co/c1-29-20-39-40(21-30(29)2)75(28-70-39)57-52(84)53(41(27-76)87-57)89-90(85,86)88-31(3)26-69-49(83)18-19-59(8)37(22-46(66)80)56-62(11)61(10,25-48(68)82)36(14-17-45(65)79)51(74-62)33(5)55-60(9,24-47(67)81)34(12-15-43(63)77)38(71-55)23-42-58(6,7)35(13-16-44(64)78)50(72-42)32(4)54(59)73-56;1-4-6(16)7(17)10(18-4)15-3-14-5-8(11)12-2-13-9(5)15;/h20-21,23,28,31,34-37,41,52-53,56-57,76,84H,12-19,22,24-27H2,1-11H3,(H15,63,64,65,66,67,68,69,71,72,73,74,77,78,79,80,81,82,83,85,86);2-4,6-7,10,16-17H,1H2,(H2,11,12,13);/q;-1;/p-2/t31-,34+,35+,36+,37-,41+,52+,53+,56+,57-,59-,60-,61-,62-;4-,6-,7-,10-;/m01./s1

> <PUBCHEM_IUPAC_INCHIKEY>
DFDCDQDATCDZSO-YGHJOQEPSA-L

> <PUBCHEM_EXACT_MASS>
1578.658339

> <PUBCHEM_MOLECULAR_FORMULA>
C72H100CoN18O17P-3

> <PUBCHEM_MOLECULAR_WEIGHT>
1579.6

> <PUBCHEM_SMILES>
CC1=CC2=C(C=C1C)N(C=N2)[C@@H]3[C@@H]([C@@H]([C@H](O3)CO)OP(=O)([O-])O[C@@H](C)CNC(=O)CC[C@]\4([C@H]([C@@H]5[C@]6([C@@]([C@@H](C(=N6)/C(=C\7/[C@@]([C@@H](C(=N7)/C=C\8/C([C@@H](C(=N8)/C(=C4\[N-]5)/C)CCC(=O)N)(C)C)CCC(=O)N)(C)CC(=O)N)/C)CCC(=O)N)(C)CC(=O)N)C)CC(=O)N)C)O.[CH2-][C@@H]1[C@H]([C@H]([C@@H](O1)N2C=NC3=C(N=CN=C32)N)O)O.[Co]

> <PUBCHEM_CONNECTIVITY_SMILES>
CC1=CC2=C(C=C1C)N(C=N2)C3C(C(C(O3)CO)OP(=O)([O-])OC(C)CNC(=O)CCC4(C(C5C6(C(C(C(=N6)C(=C7C(C(C(=N7)C=C8C(C(C(=N8)C(=C4[N-]5)C)CCC(=O)N)(C)C)CCC(=O)N)(C)CC(=O)N)C)CCC(=O)N)(C)CC(=O)N)C)CC(=O)N)C)O.[CH2-]C1C(C(C(O1)N2C=NC3=C(N=CN=C32)N)O)O.[Co]

> <PUBCHEM_CACTVS_TPSA>
571

> <PUBCHEM_MONOISOTOPIC_WEIGHT>
1578.658339

> <PUBCHEM_TOTAL_CHARGE>
-3

> <PUBCHEM_HEAVY_ATOM_COUNT>
109

> <PUBCHEM_ATOM_DEF_STEREO_COUNT>
18

> <PUBCHEM_ATOM_UDEF_STEREO_COUNT>
0

> <PUBCHEM_BOND_DEF_STEREO_COUNT>
3

> <PUBCHEM_BOND_UDEF_STEREO_COUNT>
0

> <PUBCHEM_ISOTOPIC_ATOM_COUNT>
0

> <PUBCHEM_COMPONENT_COUNT>
3

> <PUBCHEM_CACTVS_TAUTO_COUNT>
-1

> <PUBCHEM_NONSTANDARDBOND>
1  20  6
1  21  6
1  22  6
1  23  6
1  24  6
1  40  6

> <PUBCHEM_COORDINATE_TYPE>
1
5
255

> <PUBCHEM_BONDANNOTATIONS>
92  10  5
101  104  8
104  107  8
106  109  6
24  60  8
24  61  8
25  61  8
25  69  8
26  101  8
26  102  8
80  26  5
34  102  8
34  104  8
35  101  8
35  108  8
36  107  8
36  108  8
38  52  6
39  110  5
68  4  6
51  40  5
41  63  6
44  64  5
45  67  6
46  66  6
79  5  6
55  75  6
57  73  6
58  74  6
60  69  8
60  78  8
69  86  8
78  90  8
85  166  6
86  91  8
90  91  8
95  179  6
99  103  6

$$$$
146025952
  -OEChem-04182609202D

209217  0     1  0  0  0  0  0999 V2000
    7.2438    1.8817    0.0000 Co  0  1  0  0  0  0  0  0  0  0  0  0
    4.8914   -5.9248    0.0000 P   0  0  3  0  0  0  0  0  0  0  0  0
    9.5002    2.9905    0.0000 O   0  0  0  0  0  0  0  0  0  0  0  0
    8.3573    0.6690    0.0000 O   0  0  0  0  0  0  0  0  0  0  0  0
   10.8674    1.0122    0.0000 O   0  0  0  0  0  0  0  0  0  0  0  0
    8.6082   -4.7945    0.0000 O   0  0  0  0  0  0  0  0  0  0  0  0
    3.2166    2.6458    0.0000 O   0  0  0  0  0  0  0  0  0  0  0  0
    3.8026    1.8720    0.0000 O   0  0  0  0  0  0  0  0  0  0  0  0
    7.9632    5.8987    0.0000 O   0  0  0  0  0  0  0  0  0  0  0  0
    6.3540   -3.7250    0.0000 O   0  0  0  0  0  0  0  0  0  0  0  0
    5.3168   -3.1586    0.0000 O   0  0  0  0  0  0  0  0  0  0  0  0
    5.2258    6.9665    0.0000 O   0  0  0  0  0  0  0  0  0  0  0  0
    6.3500   -5.9238    0.0000 O   0  0  0  0  0  0  0  0  0  0  0  0
    6.3900   -1.5769    0.0000 O   0  0  0  0  0  0  0  0  0  0  0  0
   12.2363    4.3613    0.0000 O   0  0  0  0  0  0  0  0  0  0  0  0
    9.3326   -6.7191    0.0000 O   0  0  0  0  0  0  0  0  0  0  0  0
    4.1460   -5.3482    0.0000 O   0  0  0  0  0  0  0  0  0  0  0  0
    4.3345   -6.7554    0.0000 O   0  5  0  0  0  0  0  0  0  0  0  0
    4.8244   -6.9225    0.0000 O   0  0  0  0  0  0  0  0  0  0  0  0
    6.3511    2.7265    0.0000 N   0  0  0  0  0  0  0  0  0  0  0  0
    6.2696    0.9555    0.0000 N   0  5  0  0  0  0  0  0  0  0  0  0
    8.1233    2.8092    0.0000 N   0  0  0  0  0  0  0  0  0  0  0  0
    8.0613    1.0577    0.0000 N   0  0  0  0  0  0  0  0  0  0  0  0
    8.3603   -1.6098    0.0000 N   0  0  0  0  0  0  0  0  0  0  0  0
    8.3532   -3.1346    0.0000 N   0  0  0  0  0  0  0  0  0  0  0  0
   11.2532    2.6703    0.0000 N   0  0  0  0  0  0  0  0  0  0  0  0
    2.5760    4.2550    0.0000 N   0  0  0  0  0  0  0  0  0  0  0  0
    2.4374    0.8060    0.0000 N   0  0  0  0  0  0  0  0  0  0  0  0
    9.5513    6.5900    0.0000 N   0  0  0  0  0  0  0  0  0  0  0  0
    3.6538   -2.9040    0.0000 N   0  0  0  0  0  0  0  0  0  0  0  0
    3.5149    6.6972    0.0000 N   0  0  0  0  0  0  0  0  0  0  0  0
    6.8737   -2.9057    0.0000 N   0  0  0  0  0  0  0  0  0  0  0  0
   11.7086    6.0111    0.0000 N   0  0  0  0  0  0  0  0  0  0  0  0
   12.5756    3.5876    0.0000 N   0  0  0  0  0  0  0  0  0  0  0  0
   12.1256    1.0699    0.0000 N   0  0  0  0  0  0  0  0  0  0  0  0
   13.8517    1.2133    0.0000 N   0  0  0  0  0  0  0  0  0  0  0  0
   14.5907    2.7798    0.0000 N   0  0  0  0  0  0  0  0  0  0  0  0
    5.4857    2.6028    0.0000 C   0  0  1  0  0  0  0  0  0  0  0  0
    5.4455    1.0381    0.0000 C   0  0  1  0  0  0  0  0  0  0  0  0
    7.7340    2.7534    0.0000 C   0  5  0  0  0  0  0  0  0  0  0  0
    5.0748    3.3854    0.0000 C   0  0  2  0  0  0  0  0  0  0  0  0
    6.4544    3.6128    0.0000 C   0  0  0  0  0  0  0  0  0  0  0  0
    6.4141    0.1108    0.0000 C   0  0  0  0  0  0  0  0  0  0  0  0
    5.0334    0.2957    0.0000 C   0  0  1  0  0  0  0  0  0  0  0  0
    5.6510   -0.3219    0.0000 C   0  0  1  0  0  0  0  0  0  0  0  0
    5.6923    4.0030    0.0000 C   0  0  1  0  0  0  0  0  0  0  0  0
    7.9994    3.6334    0.0000 C   0  0  0  0  0  0  0  0  0  0  0  0
    7.9581    0.1304    0.0000 C   0  0  0  0  0  0  0  0  0  0  0  0
    8.9474    1.1610    0.0000 C   0  0  0  0  0  0  0  0  0  0  0  0
    8.9474    2.6853    0.0000 C   0  0  0  0  0  0  0  0  0  0  0  0
    8.6775    2.4220    0.0000 C   0  0  2  0  0  0  0  0  0  0  0  0
    4.5118    2.3758    0.0000 C   0  0  0  0  0  0  0  0  0  0  0  0
    7.2372    4.0238    0.0000 C   0  0  0  0  0  0  0  0  0  0  0  0
    7.1753   -0.2806    0.0000 C   0  0  0  0  0  0  0  0  0  0  0  0
    8.7615    4.0649    0.0000 C   0  0  2  0  0  0  0  0  0  0  0  0
    9.3583    0.3782    0.0000 C   0  0  0  0  0  0  0  0  0  0  0  0
    8.7408   -0.2393    0.0000 C   0  0  2  0  0  0  0  0  0  0  0  0
    9.3789    3.4474    0.0000 C   0  0  2  0  0  0  0  0  0  0  0  0
    9.3790    1.9232    0.0000 C   0  0  0  0  0  0  0  0  0  0  0  0
    9.2551   -1.9052    0.0000 C   0  0  0  0  0  0  0  0  0  0  0  0
    7.8028   -2.3696    0.0000 C   0  0  0  0  0  0  0  0  0  0  0  0
    4.2900    4.0051    0.0000 C   0  0  0  0  0  0  0  0  0  0  0  0
    4.2429    2.8305    0.0000 C   0  0  0  0  0  0  0  0  0  0  0  0
    4.0432    0.1568    0.0000 C   0  0  0  0  0  0  0  0  0  0  0  0
    5.5244   -1.2557    0.0000 C   0  0  0  0  0  0  0  0  0  0  0  0
    5.5368    4.9909    0.0000 C   0  0  0  0  0  0  0  0  0  0  0  0
    4.7034   -0.6415    0.0000 C   0  0  0  0  0  0  0  0  0  0  0  0
    8.9640    1.4639    0.0000 C   0  0  2  0  0  0  0  0  0  0  0  0
    9.2508   -2.8475    0.0000 C   0  0  0  0  0  0  0  0  0  0  0  0
    7.1871    5.0225    0.0000 C   0  0  0  0  0  0  0  0  0  0  0  0
    9.3559    4.8690    0.0000 C   0  0  0  0  0  0  0  0  0  0  0  0
    7.1352   -1.2798    0.0000 C   0  0  0  0  0  0  0  0  0  0  0  0
    8.9996   -1.2052    0.0000 C   0  0  0  0  0  0  0  0  0  0  0  0
   10.3314    3.7520    0.0000 C   0  0  0  0  0  0  0  0  0  0  0  0
    8.1804    4.8788    0.0000 C   0  0  0  0  0  0  0  0  0  0  0  0
   10.3573    0.3320    0.0000 C   0  0  0  0  0  0  0  0  0  0  0  0
   10.0697   -0.3245    0.0000 C   0  0  0  0  0  0  0  0  0  0  0  0
   10.0733   -1.4378    0.0000 C   0  0  0  0  0  0  0  0  0  0  0  0
    9.9637    1.4403    0.0000 C   0  0  2  0  0  0  0  0  0  0  0  0
   10.2951    2.3838    0.0000 C   0  0  1  0  0  0  0  0  0  0  0  0
    3.3609    3.6353    0.0000 C   0  0  0  0  0  0  0  0  0  0  0  0
    4.6524   -1.6130    0.0000 C   0  0  0  0  0  0  0  0  0  0  0  0
    4.6036    5.3501    0.0000 C   0  0  0  0  0  0  0  0  0  0  0  0
    3.4277    0.9449    0.0000 C   0  0  0  0  0  0  0  0  0  0  0  0
    8.0579   -4.0295    0.0000 C   0  0  2  0  0  0  0  0  0  0  0  0
   10.0647   -3.3225    0.0000 C   0  0  0  0  0  0  0  0  0  0  0  0
    8.2925   -1.9123    0.0000 C   0  0  0  0  0  0  0  0  0  0  0  0
   10.5438    4.7292    0.0000 C   0  0  0  0  0  0  0  0  0  0  0  0
    8.9568    5.7859    0.0000 C   0  0  0  0  0  0  0  0  0  0  0  0
   10.8873   -1.9127    0.0000 C   0  0  0  0  0  0  0  0  0  0  0  0
   10.8829   -2.8551    0.0000 C   0  0  0  0  0  0  0  0  0  0  0  0
    7.1602   -4.3166    0.0000 C   0  0  3  0  0  0  0  0  0  0  0  0
    4.5258   -2.5468    0.0000 C   0  0  0  0  0  0  0  0  0  0  0  0
    4.4481    6.3380    0.0000 C   0  0  0  0  0  0  0  0  0  0  0  0
    7.1559   -5.2589    0.0000 C   0  0  1  0  0  0  0  0  0  0  0  0
    7.2963   -1.9995    0.0000 C   0  0  0  0  0  0  0  0  0  0  0  0
   11.4962    5.0339    0.0000 C   0  0  0  0  0  0  0  0  0  0  0  0
   11.7556   -1.4167    0.0000 C   0  0  0  0  0  0  0  0  0  0  0  0
    8.0508   -5.5543    0.0000 C   0  0  1  0  0  0  0  0  0  0  0  0
   11.7466   -3.3591    0.0000 C   0  0  0  0  0  0  0  0  0  0  0  0
   12.0429    2.0665    0.0000 C   0  0  0  0  0  0  0  0  0  0  0  0
   11.5818    3.6085    0.0000 C   0  0  0  0  0  0  0  0  0  0  0  0
    8.3554   -6.5068    0.0000 C   0  0  0  0  0  0  0  0  0  0  0  0
   12.8646    2.6364    0.0000 C   0  0  0  0  0  0  0  0  0  0  0  0
    3.5272   -3.8379    0.0000 C   0  0  0  0  0  0  0  0  0  0  0  0
    4.2726   -4.4144    0.0000 C   0  0  1  0  0  0  0  0  0  0  0  0
   13.7690    2.2098    0.0000 C   0  0  0  0  0  0  0  0  0  0  0  0
   13.0301    0.6433    0.0000 C   0  0  0  0  0  0  0  0  0  0  0  0
    5.2646   -4.2877    0.0000 C   0  0  0  0  0  0  0  0  0  0  0  0
    4.6254    1.2617    0.0000 H   0  0  0  0  0  0  0  0  0  0  0  0
    7.1141    2.7463    0.0000 H   0  0  0  0  0  0  0  0  0  0  0  0
    7.4180    3.2868    0.0000 H   0  0  0  0  0  0  0  0  0  0  0  0
    4.6825    0.8067    0.0000 H   0  0  0  0  0  0  0  0  0  0  0  0
    6.1944    4.3667    0.0000 H   0  0  0  0  0  0  0  0  0  0  0  0
    8.5950    3.0365    0.0000 H   0  0  0  0  0  0  0  0  0  0  0  0
    4.3711    2.9797    0.0000 H   0  0  0  0  0  0  0  0  0  0  0  0
    3.9080    2.2352    0.0000 H   0  0  0  0  0  0  0  0  0  0  0  0
    4.6525    1.7720    0.0000 H   0  0  0  0  0  0  0  0  0  0  0  0
    8.2649   -0.6366    0.0000 H   0  0  0  0  0  0  0  0  0  0  0  0
    9.7700    2.9663    0.0000 H   0  0  0  0  0  0  0  0  0  0  0  0
    9.9990    1.9180    0.0000 H   0  0  0  0  0  0  0  0  0  0  0  0
    7.1829   -2.3668    0.0000 H   0  0  0  0  0  0  0  0  0  0  0  0
    4.7529    4.4176    0.0000 H   0  0  0  0  0  0  0  0  0  0  0  0
    3.9641    4.5326    0.0000 H   0  0  0  0  0  0  0  0  0  0  0  0
    3.8988    3.3463    0.0000 H   0  0  0  0  0  0  0  0  0  0  0  0
    3.7271    2.4865    0.0000 H   0  0  0  0  0  0  0  0  0  0  0  0
    4.5869    2.3147    0.0000 H   0  0  0  0  0  0  0  0  0  0  0  0
    3.4956   -0.1342    0.0000 H   0  0  0  0  0  0  0  0  0  0  0  0
    4.2346   -0.4330    0.0000 H   0  0  0  0  0  0  0  0  0  0  0  0
    5.6562   -1.8615    0.0000 H   0  0  0  0  0  0  0  0  0  0  0  0
    6.1439   -1.2310    0.0000 H   0  0  0  0  0  0  0  0  0  0  0  0
    6.1567    4.9794    0.0000 H   0  0  0  0  0  0  0  0  0  0  0  0
    5.6557    5.5994    0.0000 H   0  0  0  0  0  0  0  0  0  0  0  0
    4.5052   -0.0540    0.0000 H   0  0  0  0  0  0  0  0  0  0  0  0
    4.1160   -0.8397    0.0000 H   0  0  0  0  0  0  0  0  0  0  0  0
    4.9016   -1.2290    0.0000 H   0  0  0  0  0  0  0  0  0  0  0  0
    8.3541    1.5753    0.0000 H   0  0  0  0  0  0  0  0  0  0  0  0
    7.8063    5.0536    0.0000 H   0  0  0  0  0  0  0  0  0  0  0  0
    7.1560    5.6417    0.0000 H   0  0  0  0  0  0  0  0  0  0  0  0
    6.5679    4.9915    0.0000 H   0  0  0  0  0  0  0  0  0  0  0  0
    9.7829    4.4195    0.0000 H   0  0  0  0  0  0  0  0  0  0  0  0
    9.8728    5.2115    0.0000 H   0  0  0  0  0  0  0  0  0  0  0  0
    6.5157   -1.2550    0.0000 H   0  0  0  0  0  0  0  0  0  0  0  0
    7.1104   -1.8993    0.0000 H   0  0  0  0  0  0  0  0  0  0  0  0
    7.7548   -1.3046    0.0000 H   0  0  0  0  0  0  0  0  0  0  0  0
    9.3553   -1.7131    0.0000 H   0  0  0  0  0  0  0  0  0  0  0  0
    9.5615   -0.9432    0.0000 H   0  0  0  0  0  0  0  0  0  0  0  0
   10.4148    3.1377    0.0000 H   0  0  0  0  0  0  0  0  0  0  0  0
   10.9509    3.7276    0.0000 H   0  0  0  0  0  0  0  0  0  0  0  0
    8.6850    5.2390    0.0000 H   0  0  0  0  0  0  0  0  0  0  0  0
    7.8202    5.3834    0.0000 H   0  0  0  0  0  0  0  0  0  0  0  0
    7.6758    4.5185    0.0000 H   0  0  0  0  0  0  0  0  0  0  0  0
   10.3286   -0.2873    0.0000 H   0  0  0  0  0  0  0  0  0  0  0  0
   10.9766    0.3033    0.0000 H   0  0  0  0  0  0  0  0  0  0  0  0
   10.3859    0.9513    0.0000 H   0  0  0  0  0  0  0  0  0  0  0  0
    9.6340   -0.7656    0.0000 H   0  0  0  0  0  0  0  0  0  0  0  0
   10.5108   -0.7603    0.0000 H   0  0  0  0  0  0  0  0  0  0  0  0
   10.5055    0.1165    0.0000 H   0  0  0  0  0  0  0  0  0  0  0  0
   10.0762   -0.8178    0.0000 H   0  0  0  0  0  0  0  0  0  0  0  0
    9.8206    0.8371    0.0000 H   0  0  0  0  0  0  0  0  0  0  0  0
   10.7230    1.9352    0.0000 H   0  0  0  0  0  0  0  0  0  0  0  0
    4.5205   -1.0071    0.0000 H   0  0  0  0  0  0  0  0  0  0  0  0
    4.0329   -1.6376    0.0000 H   0  0  0  0  0  0  0  0  0  0  0  0
    3.9837    5.3615    0.0000 H   0  0  0  0  0  0  0  0  0  0  0  0
    4.4847    4.7416    0.0000 H   0  0  0  0  0  0  0  0  0  0  0  0
    8.8980   -3.9004    0.0000 H   0  0  0  0  0  0  0  0  0  0  0  0
   10.0618   -3.9425    0.0000 H   0  0  0  0  0  0  0  0  0  0  0  0
    8.1672   -2.5195    0.0000 H   0  0  0  0  0  0  0  0  0  0  0  0
    8.8383   -2.2066    0.0000 H   0  0  0  0  0  0  0  0  0  0  0  0
   10.4603    5.3436    0.0000 H   0  0  0  0  0  0  0  0  0  0  0  0
    9.9243    4.7537    0.0000 H   0  0  0  0  0  0  0  0  0  0  0  0
    7.7381    0.6403    0.0000 H   0  0  0  0  0  0  0  0  0  0  0  0
    6.6065   -4.5955    0.0000 H   0  0  0  0  0  0  0  0  0  0  0  0
   11.3774    1.3648    0.0000 H   0  0  0  0  0  0  0  0  0  0  0  0
    2.0000    4.0258    0.0000 H   0  0  0  0  0  0  0  0  0  0  0  0
    2.6655    4.8686    0.0000 H   0  0  0  0  0  0  0  0  0  0  0  0
    2.0558    1.2947    0.0000 H   0  0  0  0  0  0  0  0  0  0  0  0
    2.2050    0.2312    0.0000 H   0  0  0  0  0  0  0  0  0  0  0  0
    7.3127   -6.0944    0.0000 H   0  0  0  0  0  0  0  0  0  0  0  0
   12.0631   -1.9551    0.0000 H   0  0  0  0  0  0  0  0  0  0  0  0
   12.2939   -1.1092    0.0000 H   0  0  0  0  0  0  0  0  0  0  0  0
   11.4480   -0.8783    0.0000 H   0  0  0  0  0  0  0  0  0  0  0  0
    8.6627   -5.6541    0.0000 H   0  0  0  0  0  0  0  0  0  0  0  0
    9.3038    7.1585    0.0000 H   0  0  0  0  0  0  0  0  0  0  0  0
   10.1673    6.5201    0.0000 H   0  0  0  0  0  0  0  0  0  0  0  0
   11.4342   -3.8946    0.0000 H   0  0  0  0  0  0  0  0  0  0  0  0
   12.2821   -3.6715    0.0000 H   0  0  0  0  0  0  0  0  0  0  0  0
   12.0591   -2.8236    0.0000 H   0  0  0  0  0  0  0  0  0  0  0  0
   11.2284    4.1179    0.0000 H   0  0  0  0  0  0  0  0  0  0  0  0
    3.1634   -2.5247    0.0000 H   0  0  0  0  0  0  0  0  0  0  0  0
    3.4184    7.3097    0.0000 H   0  0  0  0  0  0  0  0  0  0  0  0
    3.0326    6.3075    0.0000 H   0  0  0  0  0  0  0  0  0  0  0  0
    5.7864   -3.9746    0.0000 H   0  0  0  0  0  0  0  0  0  0  0  0
    7.7411   -6.5902    0.0000 H   0  0  0  0  0  0  0  0  0  0  0  0
    8.3310   -7.1263    0.0000 H   0  0  0  0  0  0  0  0  0  0  0  0
    6.2560   -2.9598    0.0000 H   0  0  0  0  0  0  0  0  0  0  0  0
    7.2293   -3.4136    0.0000 H   0  0  0  0  0  0  0  0  0  0  0  0
   12.2992    6.1999    0.0000 H   0  0  0  0  0  0  0  0  0  0  0  0
   11.2498    6.4280    0.0000 H   0  0  0  0  0  0  0  0  0  0  0  0
    2.9366   -3.6492    0.0000 H   0  0  0  0  0  0  0  0  0  0  0  0
    3.2388   -4.3867    0.0000 H   0  0  0  0  0  0  0  0  0  0  0  0
    4.7659   -4.0389    0.0000 H   0  0  0  0  0  0  0  0  0  0  0  0
    9.5215   -7.3097    0.0000 H   0  0  0  0  0  0  0  0  0  0  0  0
   13.0814    0.0254    0.0000 H   0  0  0  0  0  0  0  0  0  0  0  0
    5.3431   -4.9027    0.0000 H   0  0  0  0  0  0  0  0  0  0  0  0
    5.8796   -4.2091    0.0000 H   0  0  0  0  0  0  0  0  0  0  0  0
    5.1860   -3.6727    0.0000 H   0  0  0  0  0  0  0  0  0  0  0  0
   15.1514    2.5153    0.0000 H   0  0  0  0  0  0  0  0  0  0  0  0
   14.5394    3.3977    0.0000 H   0  0  0  0  0  0  0  0  0  0  0  0
  2 13  1  0  0  0  0
  2 17  1  0  0  0  0
  2 18  1  0  0  0  0
  2 19  2  0  0  0  0
  3 51  1  0  0  0  0
  3 80  1  0  0  0  0
 68  4  1  6  0  0  0
  4172  1  0  0  0  0
 79  5  1  6  0  0  0
  5174  1  0  0  0  0
  6 85  1  0  0  0  0
  6 99  1  0  0  0  0
  7 81  2  0  0  0  0
  8 84  2  0  0  0  0
  9 89  2  0  0  0  0
 10 92  1  0  0  0  0
 10193  1  0  0  0  0
 11 93  2  0  0  0  0
 12 94  2  0  0  0  0
 13 95  1  0  0  0  0
 14 96  2  0  0  0  0
 15 97  2  0  0  0  0
 16103  1  0  0  0  0
 16203  1  0  0  0  0
 17106  1  0  0  0  0
 20 38  1  0  0  0  0
 20 42  2  0  0  0  0
 21 39  1  0  0  0  0
 21 43  1  0  0  0  0
 22 47  1  0  0  0  0
 22 50  2  0  0  0  0
 23 48  2  0  0  0  0
 23 49  1  0  0  0  0
 24 60  1  0  0  0  0
 24 61  2  0  0  0  0
 25 61  1  0  0  0  0
 25 69  1  0  0  0  0
 25 85  1  0  0  0  0
 80 26  1  1  0  0  0
 26101  1  0  0  0  0
 26102  1  0  0  0  0
 27 81  1  0  0  0  0
 27175  1  0  0  0  0
 27176  1  0  0  0  0
 28 84  1  0  0  0  0
 28177  1  0  0  0  0
 28178  1  0  0  0  0
 29 89  1  0  0  0  0
 29184  1  0  0  0  0
 29185  1  0  0  0  0
 30 93  1  0  0  0  0
 30105  1  0  0  0  0
 30190  1  0  0  0  0
 31 94  1  0  0  0  0
 31191  1  0  0  0  0
 31192  1  0  0  0  0
 32 96  1  0  0  0  0
 32196  1  0  0  0  0
 32197  1  0  0  0  0
 33 97  1  0  0  0  0
 33198  1  0  0  0  0
 33199  1  0  0  0  0
 34102  2  0  0  0  0
 34104  1  0  0  0  0
 35101  2  0  0  0  0
 35108  1  0  0  0  0
 36107  1  0  0  0  0
 36108  2  0  0  0  0
 37107  1  0  0  0  0
 37208  1  0  0  0  0
 37209  1  0  0  0  0
 38 39  1  0  0  0  0
 38 41  1  0  0  0  0
 38 52  1  6  0  0  0
 39 44  1  0  0  0  0
 39110  1  1  0  0  0
 51 40  1  1  0  0  0
 40111  1  0  0  0  0
 40112  1  0  0  0  0
 41 46  1  0  0  0  0
 41 62  1  0  0  0  0
 41 63  1  6  0  0  0
 42 46  1  0  0  0  0
 42 53  1  0  0  0  0
 43 45  1  0  0  0  0
 43 54  2  0  0  0  0
 44 45  1  0  0  0  0
 44 64  1  1  0  0  0
 44113  1  0  0  0  0
 45 65  1  0  0  0  0
 45 67  1  1  0  0  0
 46 66  1  6  0  0  0
 46114  1  0  0  0  0
 47 53  2  0  0  0  0
 47 55  1  0  0  0  0
 48 54  1  0  0  0  0
 48 57  1  0  0  0  0
 49 56  1  0  0  0  0
 49 59  2  0  0  0  0
 50 58  1  0  0  0  0
 50 59  1  0  0  0  0
 51 68  1  0  0  0  0
 51115  1  0  0  0  0
 52116  1  0  0  0  0
 52117  1  0  0  0  0
 52118  1  0  0  0  0
 53 70  1  0  0  0  0
 54 72  1  0  0  0  0
 55 58  1  0  0  0  0
 55 71  1  0  0  0  0
 55 75  1  6  0  0  0
 56 57  1  0  0  0  0
 56 76  1  0  0  0  0
 56 77  1  0  0  0  0
 57 73  1  6  0  0  0
 57119  1  0  0  0  0
 58 74  1  6  0  0  0
 58120  1  0  0  0  0
 59121  1  0  0  0  0
 60 69  2  0  0  0  0
 60 78  1  0  0  0  0
 61122  1  0  0  0  0
 62 81  1  0  0  0  0
 62123  1  0  0  0  0
 62124  1  0  0  0  0
 63125  1  0  0  0  0
 63126  1  0  0  0  0
 63127  1  0  0  0  0
 64 84  1  0  0  0  0
 64128  1  0  0  0  0
 64129  1  0  0  0  0
 65 82  1  0  0  0  0
 65130  1  0  0  0  0
 65131  1  0  0  0  0
 66 83  1  0  0  0  0
 66132  1  0  0  0  0
 66133  1  0  0  0  0
 67134  1  0  0  0  0
 67135  1  0  0  0  0
 67136  1  0  0  0  0
 68 79  1  0  0  0  0
 68137  1  0  0  0  0
 69 86  1  0  0  0  0
 70138  1  0  0  0  0
 70139  1  0  0  0  0
 70140  1  0  0  0  0
 71 89  1  0  0  0  0
 71141  1  0  0  0  0
 71142  1  0  0  0  0
 72143  1  0  0  0  0
 72144  1  0  0  0  0
 72145  1  0  0  0  0
 73 87  1  0  0  0  0
 73146  1  0  0  0  0
 73147  1  0  0  0  0
 74 88  1  0  0  0  0
 74148  1  0  0  0  0
 74149  1  0  0  0  0
 75150  1  0  0  0  0
 75151  1  0  0  0  0
 75152  1  0  0  0  0
 76153  1  0  0  0  0
 76154  1  0  0  0  0
 76155  1  0  0  0  0
 77156  1  0  0  0  0
 77157  1  0  0  0  0
 77158  1  0  0  0  0
 78 90  2  0  0  0  0
 78159  1  0  0  0  0
 79 80  1  0  0  0  0
 79160  1  0  0  0  0
 80161  1  0  0  0  0
 82 93  1  0  0  0  0
 82162  1  0  0  0  0
 82163  1  0  0  0  0
 83 94  1  0  0  0  0
 83164  1  0  0  0  0
 83165  1  0  0  0  0
 85 92  1  0  0  0  0
 85166  1  6  0  0  0
 86 91  2  0  0  0  0
 86167  1  0  0  0  0
 87 96  1  0  0  0  0
 87168  1  0  0  0  0
 87169  1  0  0  0  0
 88 97  1  0  0  0  0
 88170  1  0  0  0  0
 88171  1  0  0  0  0
 90 91  1  0  0  0  0
 90 98  1  0  0  0  0
 91100  1  0  0  0  0
 92 95  1  0  0  0  0
 92173  1  0  0  0  0
 95 99  1  0  0  0  0
 95179  1  6  0  0  0
 98180  1  0  0  0  0
 98181  1  0  0  0  0
 98182  1  0  0  0  0
 99103  1  6  0  0  0
 99183  1  0  0  0  0
100186  1  0  0  0  0
100187  1  0  0  0  0
100188  1  0  0  0  0
101104  1  0  0  0  0
102189  1  0  0  0  0
103194  1  0  0  0  0
103195  1  0  0  0  0
104107  2  0  0  0  0
105106  1  0  0  0  0
105200  1  0  0  0  0
105201  1  0  0  0  0
106109  1  1  0  0  0
106202  1  0  0  0  0
108204  1  0  0  0  0
109205  1  0  0  0  0
109206  1  0  0  0  0
109207  1  0  0  0  0
M  CHG  4   1   3  18  -1  21  -1  40  -1
M  END
> <PUBCHEM_COMPOUND_CID>
146025952

> <PUBCHEM_COMPOUND_CANONICALIZED>
1

> <PUBCHEM_CACTVS_COMPLEXITY>
3730

> <PUBCHEM_CACTVS_HBOND_ACCEPTOR>
27

> <PUBCHEM_CACTVS_HBOND_DONOR>
12

> <PUBCHEM_CACTVS_ROTATABLE_BOND>
17

> <PUBCHEM_CACTVS_SUBSKEYS>
AAADcfB//gIAAAAQAAAAAAAAAAAAAWLFixI8QIECAAAQAFgB/gAAHgAQCCAAD7zhnwY38L/MFxCoQydzdICCgC0xEqAB2KE4dJiLeLLA2dGeZAhvlgLbyCf8ucKfiAAAQAAQACAQAACAACAAQAAAAAAAAA==

> <PUBCHEM_IUPAC_OPENEYE_NAME>
cobaltic;(2R,3R,4S,5R)-2-(6-aminopurin-9-yl)-5-methanidyl-tetrahydrofuran-3,4-diol;[(2R,3S,5S)-5-(5,6-dimethylbenzimidazol-1-yl)-4-hydroxy-2-(hydroxymethyl)tetrahydrofuran-3-yl] [(1R)-1-methyl-2-[3-[(1R,2R,3R,4Z,7S,9Z,12S,13S,14Z,17S,18S,19R)-2,13,18-tris(2-amino-2-oxo-ethyl)-7,12,17-tris(3-amino-3-oxo-propyl)-3,5,8,8,13,15,18,19-octamethyl-2,7,12,17-tetrahydro-1H-corrin-21-id-3-yl]propanoylamino]ethyl] phosphate

> <PUBCHEM_IUPAC_CAS_NAME>
(2R,3R,4S,5R)-2-(6-aminopurin-9-yl)-5-methanidyloxolane-3,4-diol;cobalt(3+);[(2R,3S,5S)-5-(5,6-dimethyl-1-benzimidazolyl)-4-hydroxy-2-(hydroxymethyl)-3-oxolanyl] [(2R)-1-[[1-oxo-3-[(1R,2R,3R,4Z,7S,9Z,12S,13S,14Z,17S,18S,19R)-2,13,18-tris(2-amino-2-oxoethyl)-7,12,17-tris(3-amino-3-oxopropyl)-3,5,8,8,13,15,18,19-octamethyl-2,7,12,17-tetrahydro-1H-corrin-21-id-3-yl]propyl]amino]propan-2-yl] phosphate

> <PUBCHEM_IUPAC_NAME_MARKUP>
(2<I>R</I>,3<I>R</I>,4<I>S</I>,5<I>R</I>)-2-(6-aminopurin-9-yl)-5-methanidyloxolane-3,4-diol;cobalt(3+);[(2<I>R</I>,3<I>S</I>,5<I>S</I>)-5-(5,6-dimethylbenzimidazol-1-yl)-4-hydroxy-2-(hydroxymethyl)oxolan-3-yl] [(2<I>R</I>)-1-[3-[(1<I>R</I>,2<I>R</I>,3<I>R</I>,4<I>Z</I>,7<I>S</I>,9<I>Z</I>,12<I>S</I>,13<I>S</I>,14<I>Z</I>,17<I>S</I>,18<I>S</I>,19<I>R</I>)-2,13,18-tris(2-amino-2-oxoethyl)-7,12,17-tris(3-amino-3-oxopropyl)-3,5,8,8,13,15,18,19-octamethyl-2,7,12,17-tetrahydro-1<I>H</I>-corrin-21-id-3-yl]propanoylamino]propan-2-yl] phosphate

> <PUBCHEM_IUPAC_NAME>
(2R,3R,4S,5R)-2-(6-aminopurin-9-yl)-5-methanidyloxolane-3,4-diol;cobalt(3+);[(2R,3S,5S)-5-(5,6-dimethylbenzimidazol-1-yl)-4-hydroxy-2-(hydroxymethyl)oxolan-3-yl] [(2R)-1-[3-[(1R,2R,3R,4Z,7S,9Z,12S,13S,14Z,17S,18S,19R)-2,13,18-tris(2-amino-2-oxoethyl)-7,12,17-tris(3-amino-3-oxopropyl)-3,5,8,8,13,15,18,19-octamethyl-2,7,12,17-tetrahydro-1H-corrin-21-id-3-yl]propanoylamino]propan-2-yl] phosphate

> <PUBCHEM_IUPAC_SYSTEMATIC_NAME>
(2R,3R,4S,5R)-2-(6-aminopurin-9-yl)-5-methanidyl-oxolane-3,4-diol;cobalt(3+);[(2R,3S,5S)-5-(5,6-dimethylbenzimidazol-1-yl)-2-(hydroxymethyl)-4-oxidanyl-oxolan-3-yl] [(2R)-1-[3-[(1R,2R,3R,4Z,7S,9Z,12S,13S,14Z,17S,18S,19R)-2,13,18-tris(2-azanyl-2-oxidanylidene-ethyl)-7,12,17-tris(3-azanyl-3-oxidanylidene-propyl)-3,5,8,8,13,15,18,19-octamethyl-2,7,12,17-tetrahydro-1H-corrin-21-id-3-yl]propanoylamino]propan-2-yl] phosphate

> <PUBCHEM_IUPAC_TRADITIONAL_NAME>
cobaltic;(2R,3R,4S,5R)-2-adenin-9-yl-5-methanidyl-tetrahydrofuran-3,4-diol;[(2R,3S,5S)-5-(5,6-dimethylbenzimidazol-1-yl)-4-hydroxy-2-methylol-tetrahydrofuran-3-yl] [(1R)-1-methyl-2-[3-[(1R,2R,3R,4Z,7S,9Z,12S,13S,14Z,17S,18S,19R)-2,13,18-tris(2-amino-2-keto-ethyl)-7,12,17-tris(3-amino-3-keto-propyl)-3,5,8,8,13,15,18,19-octamethyl-2,7,12,17-tetrahydro-1H-corrin-21-id-3-yl]propanoylamino]ethyl] phosphate

> <PUBCHEM_IUPAC_INCHI>
InChI=1S/C62H90N13O14P.C10H12N5O3.Co/c1-29-20-39-40(21-30(29)2)75(28-70-39)57-52(84)53(41(27-76)87-57)89-90(85,86)88-31(3)26-69-49(83)18-19-59(8)37(22-46(66)80)56-62(11)61(10,25-48(68)82)36(14-17-45(65)79)51(74-62)33(5)55-60(9,24-47(67)81)34(12-15-43(63)77)38(71-55)23-42-58(6,7)35(13-16-44(64)78)50(72-42)32(4)54(59)73-56;1-4-6(16)7(17)10(18-4)15-3-14-5-8(11)12-2-13-9(5)15;/h20-21,23,28,31,34-37,41,52-53,56-57,76,84H,12-19,22,24-27H2,1-11H3,(H15,63,64,65,66,67,68,69,71,72,73,74,77,78,79,80,81,82,83,85,86);2-4,6-7,10,16-17H,1H2,(H2,11,12,13);/q;-1;+3/p-2/t31-,34-,35-,36-,37+,41-,52?,53-,56-,57+,59-,60+,61+,62+;4-,6-,7-,10-;/m11./s1

> <PUBCHEM_IUPAC_INCHIKEY>
OAJLVMGLJZXSGX-RQKYJTTQSA-L

> <PUBCHEM_EXACT_MASS>
1578.658339

> <PUBCHEM_MOLECULAR_FORMULA>
C72H100CoN18O17P

> <PUBCHEM_MOLECULAR_WEIGHT>
1579.6

> <PUBCHEM_SMILES>
CC1=CC2=C(C=C1C)N(C=N2)[C@@H]3C([C@@H]([C@H](O3)CO)OP(=O)([O-])O[C@H](C)CNC(=O)CC[C@@]\4([C@H]([C@@H]5[C@]6([C@@]([C@@H](C(=N6)/C(=C\7/[C@@]([C@@H](C(=N7)/C=C\8/C([C@@H](C(=N8)/C(=C4\[N-]5)/C)CCC(=O)N)(C)C)CCC(=O)N)(C)CC(=O)N)/C)CCC(=O)N)(C)CC(=O)N)C)CC(=O)N)C)O.[CH2-][C@@H]1[C@H]([C@H]([C@@H](O1)N2C=NC3=C(N=CN=C32)N)O)O.[Co+3]

> <PUBCHEM_CONNECTIVITY_SMILES>
CC1=CC2=C(C=C1C)N(C=N2)C3C(C(C(O3)CO)OP(=O)([O-])OC(C)CNC(=O)CCC4(C(C5C6(C(C(C(=N6)C(=C7C(C(C(=N7)C=C8C(C(C(=N8)C(=C4[N-]5)C)CCC(=O)N)(C)C)CCC(=O)N)(C)CC(=O)N)C)CCC(=O)N)(C)CC(=O)N)C)CC(=O)N)C)O.[CH2-]C1C(C(C(O1)N2C=NC3=C(N=CN=C32)N)O)O.[Co+3]

> <PUBCHEM_CACTVS_TPSA>
571

> <PUBCHEM_MONOISOTOPIC_WEIGHT>
1578.658339

> <PUBCHEM_TOTAL_CHARGE>
0

> <PUBCHEM_HEAVY_ATOM_COUNT>
109

> <PUBCHEM_ATOM_DEF_STEREO_COUNT>
17

> <PUBCHEM_ATOM_UDEF_STEREO_COUNT>
1

> <PUBCHEM_BOND_DEF_STEREO_COUNT>
3

> <PUBCHEM_BOND_UDEF_STEREO_COUNT>
0

> <PUBCHEM_ISOTOPIC_ATOM_COUNT>
0

> <PUBCHEM_COMPONENT_COUNT>
3

> <PUBCHEM_CACTVS_TAUTO_COUNT>
-1

> <PUBCHEM_NONSTANDARDBOND>
1  20  6
1  21  6
1  22  6
1  23  6
1  24  6
1  40  6

> <PUBCHEM_COORDINATE_TYPE>
1
5
255

> <PUBCHEM_BONDANNOTATIONS>
92  10  3
101  104  8
104  107  8
106  109  5
24  60  8
24  61  8
25  61  8
25  69  8
26  101  8
26  102  8
80  26  5
34  102  8
34  104  8
35  101  8
35  108  8
36  107  8
36  108  8
38  52  6
39  110  5
68  4  6
51  40  5
41  63  6
44  64  5
45  67  5
46  66  6
79  5  6
55  75  6
57  73  6
58  74  6
60  69  8
60  78  8
69  86  8
78  90  8
85  166  6
86  91  8
90  91  8
95  179  6
99  103  6

$$$$
139033579
  -OEChem-04182609202D

209217  0     1  0  0  0  0  0999 V2000
    7.2438    1.8817    0.0000 Co  0  0  0  0  0  0  0  0  0  0  0  0
    4.8914   -5.9248    0.0000 P   0  0  3  0  0  0  0  0  0  0  0  0
    9.5145    2.6802    0.0000 O   0  0  0  0  0  0  0  0  0  0  0  0
    7.9859    0.5924    0.0000 O   0  0  0  0  0  0  0  0  0  0  0  0
   10.2704    0.2505    0.0000 O   0  0  0  0  0  0  0  0  0  0  0  0
    8.6082   -4.7945    0.0000 O   0  0  0  0  0  0  0  0  0  0  0  0
    3.2166    2.6458    0.0000 O   0  0  0  0  0  0  0  0  0  0  0  0
    3.8026    1.8720    0.0000 O   0  0  0  0  0  0  0  0  0  0  0  0
    7.9632    5.8987    0.0000 O   0  0  0  0  0  0  0  0  0  0  0  0
    6.1602   -4.3119    0.0000 O   0  0  0  0  0  0  0  0  0  0  0  0
    5.3168   -3.1586    0.0000 O   0  0  0  0  0  0  0  0  0  0  0  0
    5.2258    6.9665    0.0000 O   0  0  0  0  0  0  0  0  0  0  0  0
    6.3500   -5.9238    0.0000 O   0  0  0  0  0  0  0  0  0  0  0  0
    6.6195   -0.9464    0.0000 O   0  0  0  0  0  0  0  0  0  0  0  0
   12.3516    3.8513    0.0000 O   0  0  0  0  0  0  0  0  0  0  0  0
    9.3326   -6.7191    0.0000 O   0  0  0  0  0  0  0  0  0  0  0  0
    4.1460   -5.3482    0.0000 O   0  0  0  0  0  0  0  0  0  0  0  0
    4.3345   -6.7554    0.0000 O   0  5  0  0  0  0  0  0  0  0  0  0
    4.8244   -6.9225    0.0000 O   0  0  0  0  0  0  0  0  0  0  0  0
    6.3511    2.7265    0.0000 N   0  0  0  0  0  0  0  0  0  0  0  0
    6.2696    0.9555    0.0000 N   0  5  0  0  0  0  0  0  0  0  0  0
    8.1233    2.8092    0.0000 N   0  0  0  0  0  0  0  0  0  0  0  0
    8.0613    1.0577    0.0000 N   0  0  0  0  0  0  0  0  0  0  0  0
    8.3603   -1.6098    0.0000 N   0  0  0  0  0  0  0  0  0  0  0  0
    8.3532   -3.1346    0.0000 N   0  0  0  0  0  0  0  0  0  0  0  0
   11.1853    2.0605    0.0000 N   0  0  0  0  0  0  0  0  0  0  0  0
    2.5760    4.2550    0.0000 N   0  0  0  0  0  0  0  0  0  0  0  0
    2.4374    0.8060    0.0000 N   0  0  0  0  0  0  0  0  0  0  0  0
    9.5513    6.5900    0.0000 N   0  0  0  0  0  0  0  0  0  0  0  0
    3.6538   -2.9040    0.0000 N   0  0  0  0  0  0  0  0  0  0  0  0
    3.5149    6.6972    0.0000 N   0  0  0  0  0  0  0  0  0  0  0  0
    6.6195   -2.3606    0.0000 N   0  0  0  0  0  0  0  0  0  0  0  0
   12.1184    5.5676    0.0000 N   0  0  0  0  0  0  0  0  0  0  0  0
   12.6470    2.7342    0.0000 N   0  0  0  0  0  0  0  0  0  0  0  0
   11.7666    0.3329    0.0000 N   0  0  0  0  0  0  0  0  0  0  0  0
   13.4914    0.1743    0.0000 N   0  0  0  0  0  0  0  0  0  0  0  0
   14.4911    1.5888    0.0000 N   0  0  0  0  0  0  0  0  0  0  0  0
    5.4857    2.6028    0.0000 C   0  0  1  0  0  0  0  0  0  0  0  0
    5.4455    1.0381    0.0000 C   0  0  1  0  0  0  0  0  0  0  0  0
    7.7340    2.7534    0.0000 C   0  5  0  0  0  0  0  0  0  0  0  0
    5.0748    3.3854    0.0000 C   0  0  2  0  0  0  0  0  0  0  0  0
    6.4544    3.6128    0.0000 C   0  0  0  0  0  0  0  0  0  0  0  0
    6.4141    0.1108    0.0000 C   0  0  0  0  0  0  0  0  0  0  0  0
    5.0334    0.2957    0.0000 C   0  0  1  0  0  0  0  0  0  0  0  0
    5.6510   -0.3219    0.0000 C   0  0  1  0  0  0  0  0  0  0  0  0
    5.6923    4.0030    0.0000 C   0  0  1  0  0  0  0  0  0  0  0  0
    7.9994    3.6334    0.0000 C   0  0  0  0  0  0  0  0  0  0  0  0
    7.9581    0.1304    0.0000 C   0  0  0  0  0  0  0  0  0  0  0  0
    8.9474    1.1610    0.0000 C   0  0  0  0  0  0  0  0  0  0  0  0
    8.9474    2.6853    0.0000 C   0  0  0  0  0  0  0  0  0  0  0  0
    8.6056    2.2632    0.0000 C   0  0  2  0  0  0  0  0  0  0  0  0
    4.5118    2.3758    0.0000 C   0  0  0  0  0  0  0  0  0  0  0  0
    7.2372    4.0238    0.0000 C   0  0  0  0  0  0  0  0  0  0  0  0
    7.1753   -0.2806    0.0000 C   0  0  0  0  0  0  0  0  0  0  0  0
    8.7615    4.0649    0.0000 C   0  0  2  0  0  0  0  0  0  0  0  0
    9.3583    0.3782    0.0000 C   0  0  0  0  0  0  0  0  0  0  0  0
    8.7408   -0.2393    0.0000 C   0  0  2  0  0  0  0  0  0  0  0  0
    9.3789    3.4474    0.0000 C   0  0  2  0  0  0  0  0  0  0  0  0
    9.3790    1.9232    0.0000 C   0  0  0  0  0  0  0  0  0  0  0  0
    9.2551   -1.9052    0.0000 C   0  0  0  0  0  0  0  0  0  0  0  0
    7.8028   -2.3696    0.0000 C   0  0  0  0  0  0  0  0  0  0  0  0
    4.2900    4.0051    0.0000 C   0  0  0  0  0  0  0  0  0  0  0  0
    4.2429    2.8305    0.0000 C   0  0  0  0  0  0  0  0  0  0  0  0
    4.0432    0.1568    0.0000 C   0  0  0  0  0  0  0  0  0  0  0  0
    5.5244   -1.2557    0.0000 C   0  0  0  0  0  0  0  0  0  0  0  0
    5.5368    4.9909    0.0000 C   0  0  0  0  0  0  0  0  0  0  0  0
    4.7034   -0.6415    0.0000 C   0  0  0  0  0  0  0  0  0  0  0  0
    8.7214    1.2699    0.0000 C   0  0  2  0  0  0  0  0  0  0  0  0
    9.2508   -2.8475    0.0000 C   0  0  0  0  0  0  0  0  0  0  0  0
    7.1871    5.0225    0.0000 C   0  0  0  0  0  0  0  0  0  0  0  0
    9.3559    4.8690    0.0000 C   0  0  0  0  0  0  0  0  0  0  0  0
    8.0207   -0.8148    0.0000 C   0  0  0  0  0  0  0  0  0  0  0  0
    8.9996   -1.2052    0.0000 C   0  0  0  0  0  0  0  0  0  0  0  0
   10.3698    3.5820    0.0000 C   0  0  0  0  0  0  0  0  0  0  0  0
    8.1804    4.8788    0.0000 C   0  0  0  0  0  0  0  0  0  0  0  0
   10.3798    0.9066    0.0000 C   0  0  0  0  0  0  0  0  0  0  0  0
    9.9369   -0.4374    0.0000 C   0  0  0  0  0  0  0  0  0  0  0  0
   10.0733   -1.4378    0.0000 C   0  0  0  0  0  0  0  0  0  0  0  0
    9.7018    1.0731    0.0000 C   0  0  2  0  0  0  0  0  0  0  0  0
   10.1920    1.9447    0.0000 C   0  0  1  0  0  0  0  0  0  0  0  0
    3.3609    3.6353    0.0000 C   0  0  0  0  0  0  0  0  0  0  0  0
    4.6524   -1.6130    0.0000 C   0  0  0  0  0  0  0  0  0  0  0  0
    4.6036    5.3501    0.0000 C   0  0  0  0  0  0  0  0  0  0  0  0
    3.4277    0.9449    0.0000 C   0  0  0  0  0  0  0  0  0  0  0  0
    8.0579   -4.0295    0.0000 C   0  0  2  0  0  0  0  0  0  0  0  0
   10.0647   -3.3225    0.0000 C   0  0  0  0  0  0  0  0  0  0  0  0
    8.2925   -1.9123    0.0000 C   0  0  0  0  0  0  0  0  0  0  0  0
   10.7487    4.5075    0.0000 C   0  0  0  0  0  0  0  0  0  0  0  0
    8.9568    5.7859    0.0000 C   0  0  0  0  0  0  0  0  0  0  0  0
   10.8873   -1.9127    0.0000 C   0  0  0  0  0  0  0  0  0  0  0  0
   10.8829   -2.8551    0.0000 C   0  0  0  0  0  0  0  0  0  0  0  0
    7.1602   -4.3166    0.0000 C   0  0  1  0  0  0  0  0  0  0  0  0
    4.5258   -2.5468    0.0000 C   0  0  0  0  0  0  0  0  0  0  0  0
    4.4481    6.3380    0.0000 C   0  0  0  0  0  0  0  0  0  0  0  0
    7.1559   -5.2589    0.0000 C   0  0  1  0  0  0  0  0  0  0  0  0
    7.3266   -1.6535    0.0000 C   0  0  0  0  0  0  0  0  0  0  0  0
   11.7396    4.6421    0.0000 C   0  0  0  0  0  0  0  0  0  0  0  0
   11.7556   -1.4167    0.0000 C   0  0  0  0  0  0  0  0  0  0  0  0
    8.0508   -5.5543    0.0000 C   0  0  1  0  0  0  0  0  0  0  0  0
   11.7466   -3.3591    0.0000 C   0  0  0  0  0  0  0  0  0  0  0  0
   11.8581    1.3287    0.0000 C   0  0  0  0  0  0  0  0  0  0  0  0
   11.6718    2.9274    0.0000 C   0  0  0  0  0  0  0  0  0  0  0  0
    8.3554   -6.5068    0.0000 C   0  0  0  0  0  0  0  0  0  0  0  0
   12.7663    1.7473    0.0000 C   0  0  0  0  0  0  0  0  0  0  0  0
    3.5272   -3.8379    0.0000 C   0  0  0  0  0  0  0  0  0  0  0  0
    4.2726   -4.4144    0.0000 C   0  0  1  0  0  0  0  0  0  0  0  0
   13.5829    1.1701    0.0000 C   0  0  0  0  0  0  0  0  0  0  0  0
   12.5832   -0.2443    0.0000 C   0  0  0  0  0  0  0  0  0  0  0  0
    5.0683   -3.8087    0.0000 C   0  0  0  0  0  0  0  0  0  0  0  0
    4.6254    1.2617    0.0000 H   0  0  0  0  0  0  0  0  0  0  0  0
    7.4180    3.2868    0.0000 H   0  0  0  0  0  0  0  0  0  0  0  0
    7.1141    2.7463    0.0000 H   0  0  0  0  0  0  0  0  0  0  0  0
    4.6825    0.8067    0.0000 H   0  0  0  0  0  0  0  0  0  0  0  0
    6.1944    4.3667    0.0000 H   0  0  0  0  0  0  0  0  0  0  0  0
    8.6311    2.8827    0.0000 H   0  0  0  0  0  0  0  0  0  0  0  0
    4.3711    2.9797    0.0000 H   0  0  0  0  0  0  0  0  0  0  0  0
    3.9080    2.2352    0.0000 H   0  0  0  0  0  0  0  0  0  0  0  0
    4.6525    1.7720    0.0000 H   0  0  0  0  0  0  0  0  0  0  0  0
    8.2649   -0.6366    0.0000 H   0  0  0  0  0  0  0  0  0  0  0  0
    9.5770    4.0349    0.0000 H   0  0  0  0  0  0  0  0  0  0  0  0
    9.9990    1.9232    0.0000 H   0  0  0  0  0  0  0  0  0  0  0  0
    7.1829   -2.3668    0.0000 H   0  0  0  0  0  0  0  0  0  0  0  0
    4.7529    4.4176    0.0000 H   0  0  0  0  0  0  0  0  0  0  0  0
    3.9641    4.5326    0.0000 H   0  0  0  0  0  0  0  0  0  0  0  0
    3.8988    3.3463    0.0000 H   0  0  0  0  0  0  0  0  0  0  0  0
    3.7271    2.4865    0.0000 H   0  0  0  0  0  0  0  0  0  0  0  0
    4.5869    2.3147    0.0000 H   0  0  0  0  0  0  0  0  0  0  0  0
    3.4956   -0.1342    0.0000 H   0  0  0  0  0  0  0  0  0  0  0  0
    4.2346   -0.4330    0.0000 H   0  0  0  0  0  0  0  0  0  0  0  0
    5.6562   -1.8615    0.0000 H   0  0  0  0  0  0  0  0  0  0  0  0
    6.1439   -1.2310    0.0000 H   0  0  0  0  0  0  0  0  0  0  0  0
    6.1567    4.9794    0.0000 H   0  0  0  0  0  0  0  0  0  0  0  0
    5.6557    5.5994    0.0000 H   0  0  0  0  0  0  0  0  0  0  0  0
    4.5052   -0.0540    0.0000 H   0  0  0  0  0  0  0  0  0  0  0  0
    4.1160   -0.8397    0.0000 H   0  0  0  0  0  0  0  0  0  0  0  0
    4.9016   -1.2290    0.0000 H   0  0  0  0  0  0  0  0  0  0  0  0
    8.1401    1.4855    0.0000 H   0  0  0  0  0  0  0  0  0  0  0  0
    7.8063    5.0536    0.0000 H   0  0  0  0  0  0  0  0  0  0  0  0
    7.1560    5.6417    0.0000 H   0  0  0  0  0  0  0  0  0  0  0  0
    6.5679    4.9915    0.0000 H   0  0  0  0  0  0  0  0  0  0  0  0
    9.7829    4.4195    0.0000 H   0  0  0  0  0  0  0  0  0  0  0  0
    9.8728    5.2115    0.0000 H   0  0  0  0  0  0  0  0  0  0  0  0
    7.6894   -1.3390    0.0000 H   0  0  0  0  0  0  0  0  0  0  0  0
    8.5448   -1.1460    0.0000 H   0  0  0  0  0  0  0  0  0  0  0  0
    8.3519   -0.2907    0.0000 H   0  0  0  0  0  0  0  0  0  0  0  0
    9.3553   -1.7131    0.0000 H   0  0  0  0  0  0  0  0  0  0  0  0
    9.5615   -0.9432    0.0000 H   0  0  0  0  0  0  0  0  0  0  0  0
   10.3453    2.9625    0.0000 H   0  0  0  0  0  0  0  0  0  0  0  0
   10.9757    3.4503    0.0000 H   0  0  0  0  0  0  0  0  0  0  0  0
    8.6850    5.2390    0.0000 H   0  0  0  0  0  0  0  0  0  0  0  0
    7.8202    5.3834    0.0000 H   0  0  0  0  0  0  0  0  0  0  0  0
    7.6758    4.5185    0.0000 H   0  0  0  0  0  0  0  0  0  0  0  0
   10.6646    0.3559    0.0000 H   0  0  0  0  0  0  0  0  0  0  0  0
   10.9305    1.1914    0.0000 H   0  0  0  0  0  0  0  0  0  0  0  0
   10.0950    1.4573    0.0000 H   0  0  0  0  0  0  0  0  0  0  0  0
    9.4312   -0.7961    0.0000 H   0  0  0  0  0  0  0  0  0  0  0  0
   10.2956   -0.9431    0.0000 H   0  0  0  0  0  0  0  0  0  0  0  0
   10.4426   -0.0787    0.0000 H   0  0  0  0  0  0  0  0  0  0  0  0
   10.0762   -0.8178    0.0000 H   0  0  0  0  0  0  0  0  0  0  0  0
    9.3610    0.5552    0.0000 H   0  0  0  0  0  0  0  0  0  0  0  0
   10.4076    2.5260    0.0000 H   0  0  0  0  0  0  0  0  0  0  0  0
    4.5205   -1.0071    0.0000 H   0  0  0  0  0  0  0  0  0  0  0  0
    4.0329   -1.6376    0.0000 H   0  0  0  0  0  0  0  0  0  0  0  0
    3.9837    5.3615    0.0000 H   0  0  0  0  0  0  0  0  0  0  0  0
    4.4847    4.7416    0.0000 H   0  0  0  0  0  0  0  0  0  0  0  0
    8.8980   -3.9004    0.0000 H   0  0  0  0  0  0  0  0  0  0  0  0
   10.0618   -3.9425    0.0000 H   0  0  0  0  0  0  0  0  0  0  0  0
    8.0305   -2.4742    0.0000 H   0  0  0  0  0  0  0  0  0  0  0  0
    8.8004   -2.2679    0.0000 H   0  0  0  0  0  0  0  0  0  0  0  0
   10.7731    5.1270    0.0000 H   0  0  0  0  0  0  0  0  0  0  0  0
   10.1428    4.6392    0.0000 H   0  0  0  0  0  0  0  0  0  0  0  0
    7.3941    0.7773    0.0000 H   0  0  0  0  0  0  0  0  0  0  0  0
    6.9714   -3.7260    0.0000 H   0  0  0  0  0  0  0  0  0  0  0  0
   10.8884    0.3008    0.0000 H   0  0  0  0  0  0  0  0  0  0  0  0
    2.0000    4.0258    0.0000 H   0  0  0  0  0  0  0  0  0  0  0  0
    2.6655    4.8686    0.0000 H   0  0  0  0  0  0  0  0  0  0  0  0
    2.2050    0.2312    0.0000 H   0  0  0  0  0  0  0  0  0  0  0  0
    2.0558    1.2947    0.0000 H   0  0  0  0  0  0  0  0  0  0  0  0
    7.3127   -6.0944    0.0000 H   0  0  0  0  0  0  0  0  0  0  0  0
   12.0631   -1.9551    0.0000 H   0  0  0  0  0  0  0  0  0  0  0  0
   12.2939   -1.1092    0.0000 H   0  0  0  0  0  0  0  0  0  0  0  0
   11.4480   -0.8783    0.0000 H   0  0  0  0  0  0  0  0  0  0  0  0
    8.6627   -5.6541    0.0000 H   0  0  0  0  0  0  0  0  0  0  0  0
    9.3038    7.1585    0.0000 H   0  0  0  0  0  0  0  0  0  0  0  0
   10.1673    6.5201    0.0000 H   0  0  0  0  0  0  0  0  0  0  0  0
   11.4342   -3.8946    0.0000 H   0  0  0  0  0  0  0  0  0  0  0  0
   12.2821   -3.6715    0.0000 H   0  0  0  0  0  0  0  0  0  0  0  0
   12.0591   -2.8236    0.0000 H   0  0  0  0  0  0  0  0  0  0  0  0
   11.4123    3.4904    0.0000 H   0  0  0  0  0  0  0  0  0  0  0  0
    3.1634   -2.5247    0.0000 H   0  0  0  0  0  0  0  0  0  0  0  0
    3.4184    7.3097    0.0000 H   0  0  0  0  0  0  0  0  0  0  0  0
    3.0326    6.3075    0.0000 H   0  0  0  0  0  0  0  0  0  0  0  0
    5.8478   -4.8474    0.0000 H   0  0  0  0  0  0  0  0  0  0  0  0
    7.7411   -6.5902    0.0000 H   0  0  0  0  0  0  0  0  0  0  0  0
    8.3310   -7.1263    0.0000 H   0  0  0  0  0  0  0  0  0  0  0  0
    6.7800   -2.9595    0.0000 H   0  0  0  0  0  0  0  0  0  0  0  0
    6.0206   -2.2002    0.0000 H   0  0  0  0  0  0  0  0  0  0  0  0
   12.7328    5.6510    0.0000 H   0  0  0  0  0  0  0  0  0  0  0  0
   11.7390    6.0579    0.0000 H   0  0  0  0  0  0  0  0  0  0  0  0
    2.9366   -3.6492    0.0000 H   0  0  0  0  0  0  0  0  0  0  0  0
    3.2388   -4.3867    0.0000 H   0  0  0  0  0  0  0  0  0  0  0  0
    4.8876   -4.3358    0.0000 H   0  0  0  0  0  0  0  0  0  0  0  0
    9.5215   -7.3097    0.0000 H   0  0  0  0  0  0  0  0  0  0  0  0
   12.5264   -0.8617    0.0000 H   0  0  0  0  0  0  0  0  0  0  0  0
    5.4438   -4.3020    0.0000 H   0  0  0  0  0  0  0  0  0  0  0  0
    5.5616   -3.4332    0.0000 H   0  0  0  0  0  0  0  0  0  0  0  0
    4.6928   -3.3154    0.0000 H   0  0  0  0  0  0  0  0  0  0  0  0
   14.9974    1.2309    0.0000 H   0  0  0  0  0  0  0  0  0  0  0  0
   14.5478    2.2061    0.0000 H   0  0  0  0  0  0  0  0  0  0  0  0
  2 13  1  0  0  0  0
  2 17  1  0  0  0  0
  2 18  1  0  0  0  0
  2 19  2  0  0  0  0
  3 51  1  0  0  0  0
  3 80  1  0  0  0  0
 68  4  1  6  0  0  0
  4172  1  0  0  0  0
 79  5  1  6  0  0  0
  5174  1  0  0  0  0
  6 85  1  0  0  0  0
  6 99  1  0  0  0  0
  7 81  2  0  0  0  0
  8 84  2  0  0  0  0
  9 89  2  0  0  0  0
 92 10  1  1  0  0  0
 10193  1  0  0  0  0
 11 93  2  0  0  0  0
 12 94  2  0  0  0  0
 13 95  1  0  0  0  0
 14 96  2  0  0  0  0
 15 97  2  0  0  0  0
 16103  1  0  0  0  0
 16203  1  0  0  0  0
 17106  1  0  0  0  0
 20 38  1  0  0  0  0
 20 42  2  0  0  0  0
 21 39  1  0  0  0  0
 21 43  1  0  0  0  0
 22 47  1  0  0  0  0
 22 50  2  0  0  0  0
 23 48  2  0  0  0  0
 23 49  1  0  0  0  0
 24 60  1  0  0  0  0
 24 61  2  0  0  0  0
 25 61  1  0  0  0  0
 25 69  1  0  0  0  0
 25 85  1  0  0  0  0
 80 26  1  1  0  0  0
 26101  1  0  0  0  0
 26102  1  0  0  0  0
 27 81  1  0  0  0  0
 27175  1  0  0  0  0
 27176  1  0  0  0  0
 28 84  1  0  0  0  0
 28177  1  0  0  0  0
 28178  1  0  0  0  0
 29 89  1  0  0  0  0
 29184  1  0  0  0  0
 29185  1  0  0  0  0
 30 93  1  0  0  0  0
 30105  1  0  0  0  0
 30190  1  0  0  0  0
 31 94  1  0  0  0  0
 31191  1  0  0  0  0
 31192  1  0  0  0  0
 32 96  1  0  0  0  0
 32196  1  0  0  0  0
 32197  1  0  0  0  0
 33 97  1  0  0  0  0
 33198  1  0  0  0  0
 33199  1  0  0  0  0
 34102  2  0  0  0  0
 34104  1  0  0  0  0
 35101  2  0  0  0  0
 35108  1  0  0  0  0
 36107  1  0  0  0  0
 36108  2  0  0  0  0
 37107  1  0  0  0  0
 37208  1  0  0  0  0
 37209  1  0  0  0  0
 38 39  1  0  0  0  0
 38 41  1  0  0  0  0
 38 52  1  6  0  0  0
 39 44  1  0  0  0  0
 39110  1  1  0  0  0
 51 40  1  1  0  0  0
 40111  1  0  0  0  0
 40112  1  0  0  0  0
 41 46  1  0  0  0  0
 41 62  1  0  0  0  0
 41 63  1  6  0  0  0
 42 46  1  0  0  0  0
 42 53  1  0  0  0  0
 43 45  1  0  0  0  0
 43 54  2  3  0  0  0
 44 45  1  0  0  0  0
 44 64  1  1  0  0  0
 44113  1  0  0  0  0
 45 65  1  0  0  0  0
 45 67  1  1  0  0  0
 46 66  1  6  0  0  0
 46114  1  0  0  0  0
 47 53  2  3  0  0  0
 47 55  1  0  0  0  0
 48 54  1  0  0  0  0
 48 57  1  0  0  0  0
 49 56  1  0  0  0  0
 49 59  2  3  0  0  0
 50 58  1  0  0  0  0
 50 59  1  0  0  0  0
 51 68  1  0  0  0  0
 51115  1  0  0  0  0
 52116  1  0  0  0  0
 52117  1  0  0  0  0
 52118  1  0  0  0  0
 53 70  1  0  0  0  0
 54 72  1  0  0  0  0
 55 58  1  0  0  0  0
 55 71  1  0  0  0  0
 55 75  1  6  0  0  0
 56 57  1  0  0  0  0
 56 76  1  0  0  0  0
 56 77  1  0  0  0  0
 57 73  1  6  0  0  0
 57119  1  0  0  0  0
 58 74  1  6  0  0  0
 58120  1  0  0  0  0
 59121  1  0  0  0  0
 60 69  2  0  0  0  0
 60 78  1  0  0  0  0
 61122  1  0  0  0  0
 62 81  1  0  0  0  0
 62123  1  0  0  0  0
 62124  1  0  0  0  0
 63125  1  0  0  0  0
 63126  1  0  0  0  0
 63127  1  0  0  0  0
 64 84  1  0  0  0  0
 64128  1  0  0  0  0
 64129  1  0  0  0  0
 65 82  1  0  0  0  0
 65130  1  0  0  0  0
 65131  1  0  0  0  0
 66 83  1  0  0  0  0
 66132  1  0  0  0  0
 66133  1  0  0  0  0
 67134  1  0  0  0  0
 67135  1  0  0  0  0
 67136  1  0  0  0  0
 68 79  1  0  0  0  0
 68137  1  0  0  0  0
 69 86  1  0  0  0  0
 70138  1  0  0  0  0
 70139  1  0  0  0  0
 70140  1  0  0  0  0
 71 89  1  0  0  0  0
 71141  1  0  0  0  0
 71142  1  0  0  0  0
 72143  1  0  0  0  0
 72144  1  0  0  0  0
 72145  1  0  0  0  0
 73 87  1  0  0  0  0
 73146  1  0  0  0  0
 73147  1  0  0  0  0
 74 88  1  0  0  0  0
 74148  1  0  0  0  0
 74149  1  0  0  0  0
 75150  1  0  0  0  0
 75151  1  0  0  0  0
 75152  1  0  0  0  0
 76153  1  0  0  0  0
 76154  1  0  0  0  0
 76155  1  0  0  0  0
 77156  1  0  0  0  0
 77157  1  0  0  0  0
 77158  1  0  0  0  0
 78 90  2  0  0  0  0
 78159  1  0  0  0  0
 79 80  1  0  0  0  0
 79160  1  0  0  0  0
 80161  1  0  0  0  0
 82 93  1  0  0  0  0
 82162  1  0  0  0  0
 82163  1  0  0  0  0
 83 94  1  0  0  0  0
 83164  1  0  0  0  0
 83165  1  0  0  0  0
 85 92  1  0  0  0  0
 85166  1  6  0  0  0
 86 91  2  0  0  0  0
 86167  1  0  0  0  0
 87 96  1  0  0  0  0
 87168  1  0  0  0  0
 87169  1  0  0  0  0
 88 97  1  0  0  0  0
 88170  1  0  0  0  0
 88171  1  0  0  0  0
 90 91  1  0  0  0  0
 90 98  1  0  0  0  0
 91100  1  0  0  0  0
 92 95  1  0  0  0  0
 92173  1  0  0  0  0
 95 99  1  0  0  0  0
 95179  1  6  0  0  0
 98180  1  0  0  0  0
 98181  1  0  0  0  0
 98182  1  0  0  0  0
 99103  1  6  0  0  0
 99183  1  0  0  0  0
100186  1  0  0  0  0
100187  1  0  0  0  0
100188  1  0  0  0  0
101104  1  0  0  0  0
102189  1  0  0  0  0
103194  1  0  0  0  0
103195  1  0  0  0  0
104107  2  0  0  0  0
105106  1  0  0  0  0
105200  1  0  0  0  0
105201  1  0  0  0  0
106109  1  1  0  0  0
106202  1  0  0  0  0
108204  1  0  0  0  0
109205  1  0  0  0  0
109206  1  0  0  0  0
109207  1  0  0  0  0
M  CHG  3  18  -1  21  -1  40  -1
M  END
> <PUBCHEM_COMPOUND_CID>
139033579

> <PUBCHEM_COMPOUND_CANONICALIZED>
1

> <PUBCHEM_CACTVS_COMPLEXITY>
3730

> <PUBCHEM_CACTVS_HBOND_ACCEPTOR>
27

> <PUBCHEM_CACTVS_HBOND_DONOR>
12

> <PUBCHEM_CACTVS_ROTATABLE_BOND>
17

> <PUBCHEM_CACTVS_SUBSKEYS>
AAADcfB//gIAAAAQAAAAAAAAAAAAAWLFixI8QIECAAAQAFgB/gAAHgAQCCAAD7zhnwY38L/MFxCoQydzdICCgC0xEqAB2KE4dJiLeLLA2dGeZAhvlgLbyCf8ucKfiAAAQAAQACAQAACAACAAQAAAAAAAAA==

> <PUBCHEM_IUPAC_OPENEYE_NAME>
(2R,3R,4S,5R)-2-(6-aminopurin-9-yl)-5-methanidyl-tetrahydrofuran-3,4-diol;cobalt;[(2R,3S,4R,5S)-5-(5,6-dimethylbenzimidazol-1-yl)-4-hydroxy-2-(hydroxymethyl)tetrahydrofuran-3-yl] [(1R)-1-methyl-2-[3-[(1R,2R,3R,7S,12S,13S,17S,18S,19R)-2,13,18-tris(2-amino-2-oxo-ethyl)-7,12,17-tris(3-amino-3-oxo-propyl)-3,5,8,8,13,15,18,19-octamethyl-2,7,12,17-tetrahydro-1H-corrin-21-id-3-yl]propanoylamino]ethyl] phosphate

> <PUBCHEM_IUPAC_CAS_NAME>
(2R,3R,4S,5R)-2-(6-aminopurin-9-yl)-5-methanidyloxolane-3,4-diol;cobalt;[(2R,3S,4R,5S)-5-(5,6-dimethyl-1-benzimidazolyl)-4-hydroxy-2-(hydroxymethyl)-3-oxolanyl] [(2R)-1-[[1-oxo-3-[(1R,2R,3R,7S,12S,13S,17S,18S,19R)-2,13,18-tris(2-amino-2-oxoethyl)-7,12,17-tris(3-amino-3-oxopropyl)-3,5,8,8,13,15,18,19-octamethyl-2,7,12,17-tetrahydro-1H-corrin-21-id-3-yl]propyl]amino]propan-2-yl] phosphate

> <PUBCHEM_IUPAC_NAME_MARKUP>
(2<I>R</I>,3<I>R</I>,4<I>S</I>,5<I>R</I>)-2-(6-aminopurin-9-yl)-5-methanidyloxolane-3,4-diol;cobalt;[(2<I>R</I>,3<I>S</I>,4<I>R</I>,5<I>S</I>)-5-(5,6-dimethylbenzimidazol-1-yl)-4-hydroxy-2-(hydroxymethyl)oxolan-3-yl] [(2<I>R</I>)-1-[3-[(1<I>R</I>,2<I>R</I>,3<I>R</I>,7<I>S</I>,12<I>S</I>,13<I>S</I>,17<I>S</I>,18<I>S</I>,19<I>R</I>)-2,13,18-tris(2-amino-2-oxoethyl)-7,12,17-tris(3-amino-3-oxopropyl)-3,5,8,8,13,15,18,19-octamethyl-2,7,12,17-tetrahydro-1<I>H</I>-corrin-21-id-3-yl]propanoylamino]propan-2-yl] phosphate

> <PUBCHEM_IUPAC_NAME>
(2R,3R,4S,5R)-2-(6-aminopurin-9-yl)-5-methanidyloxolane-3,4-diol;cobalt;[(2R,3S,4R,5S)-5-(5,6-dimethylbenzimidazol-1-yl)-4-hydroxy-2-(hydroxymethyl)oxolan-3-yl] [(2R)-1-[3-[(1R,2R,3R,7S,12S,13S,17S,18S,19R)-2,13,18-tris(2-amino-2-oxoethyl)-7,12,17-tris(3-amino-3-oxopropyl)-3,5,8,8,13,15,18,19-octamethyl-2,7,12,17-tetrahydro-1H-corrin-21-id-3-yl]propanoylamino]propan-2-yl] phosphate

> <PUBCHEM_IUPAC_SYSTEMATIC_NAME>
(2R,3R,4S,5R)-2-(6-aminopurin-9-yl)-5-methanidyl-oxolane-3,4-diol;cobalt;[(2R,3S,4R,5S)-5-(5,6-dimethylbenzimidazol-1-yl)-2-(hydroxymethyl)-4-oxidanyl-oxolan-3-yl] [(2R)-1-[3-[(1R,2R,3R,7S,12S,13S,17S,18S,19R)-2,13,18-tris(2-azanyl-2-oxidanylidene-ethyl)-7,12,17-tris(3-azanyl-3-oxidanylidene-propyl)-3,5,8,8,13,15,18,19-octamethyl-2,7,12,17-tetrahydro-1H-corrin-21-id-3-yl]propanoylamino]propan-2-yl] phosphate

> <PUBCHEM_IUPAC_TRADITIONAL_NAME>
(2R,3R,4S,5R)-2-adenin-9-yl-5-methanidyl-tetrahydrofuran-3,4-diol;cobalt;[(2R,3S,4R,5S)-5-(5,6-dimethylbenzimidazol-1-yl)-4-hydroxy-2-methylol-tetrahydrofuran-3-yl] [(1R)-1-methyl-2-[3-[(1R,2R,3R,7S,12S,13S,17S,18S,19R)-2,13,18-tris(2-amino-2-keto-ethyl)-7,12,17-tris(3-amino-3-keto-propyl)-3,5,8,8,13,15,18,19-octamethyl-2,7,12,17-tetrahydro-1H-corrin-21-id-3-yl]propanoylamino]ethyl] phosphate

> <PUBCHEM_IUPAC_INCHI>
InChI=1S/C62H90N13O14P.C10H12N5O3.Co/c1-29-20-39-40(21-30(29)2)75(28-70-39)57-52(84)53(41(27-76)87-57)89-90(85,86)88-31(3)26-69-49(83)18-19-59(8)37(22-46(66)80)56-62(11)61(10,25-48(68)82)36(14-17-45(65)79)51(74-62)33(5)55-60(9,24-47(67)81)34(12-15-43(63)77)38(71-55)23-42-58(6,7)35(13-16-44(64)78)50(72-42)32(4)54(59)73-56;1-4-6(16)7(17)10(18-4)15-3-14-5-8(11)12-2-13-9(5)15;/h20-21,23,28,31,34-37,41,52-53,56-57,76,84H,12-19,22,24-27H2,1-11H3,(H15,63,64,65,66,67,68,69,71,72,73,74,77,78,79,80,81,82,83,85,86);2-4,6-7,10,16-17H,1H2,(H2,11,12,13);/q;-1;/p-2/t31-,34-,35-,36-,37+,41-,52-,53-,56-,57+,59-,60+,61+,62+;4-,6-,7-,10-;/m11./s1

> <PUBCHEM_IUPAC_INCHIKEY>
DFDCDQDATCDZSO-OUCXYWSSSA-L

> <PUBCHEM_EXACT_MASS>
1578.658339

> <PUBCHEM_MOLECULAR_FORMULA>
C72H100CoN18O17P-3

> <PUBCHEM_MOLECULAR_WEIGHT>
1579.6

> <PUBCHEM_SMILES>
CC1=CC2=C(C=C1C)N(C=N2)[C@@H]3[C@@H]([C@@H]([C@H](O3)CO)OP(=O)([O-])O[C@H](C)CNC(=O)CC[C@@]4([C@H]([C@@H]5[C@]6([C@@]([C@@H](C(=N6)C(=C7[C@@]([C@@H](C(=N7)C=C8C([C@@H](C(=N8)C(=C4[N-]5)C)CCC(=O)N)(C)C)CCC(=O)N)(C)CC(=O)N)C)CCC(=O)N)(C)CC(=O)N)C)CC(=O)N)C)O.[CH2-][C@@H]1[C@H]([C@H]([C@@H](O1)N2C=NC3=C(N=CN=C32)N)O)O.[Co]

> <PUBCHEM_CONNECTIVITY_SMILES>
CC1=CC2=C(C=C1C)N(C=N2)C3C(C(C(O3)CO)OP(=O)([O-])OC(C)CNC(=O)CCC4(C(C5C6(C(C(C(=N6)C(=C7C(C(C(=N7)C=C8C(C(C(=N8)C(=C4[N-]5)C)CCC(=O)N)(C)C)CCC(=O)N)(C)CC(=O)N)C)CCC(=O)N)(C)CC(=O)N)C)CC(=O)N)C)O.[CH2-]C1C(C(C(O1)N2C=NC3=C(N=CN=C32)N)O)O.[Co]

> <PUBCHEM_CACTVS_TPSA>
571

> <PUBCHEM_MONOISOTOPIC_WEIGHT>
1578.658339

> <PUBCHEM_TOTAL_CHARGE>
-3

> <PUBCHEM_HEAVY_ATOM_COUNT>
109

> <PUBCHEM_ATOM_DEF_STEREO_COUNT>
18

> <PUBCHEM_ATOM_UDEF_STEREO_COUNT>
0

> <PUBCHEM_BOND_DEF_STEREO_COUNT>
0

> <PUBCHEM_BOND_UDEF_STEREO_COUNT>
3

> <PUBCHEM_ISOTOPIC_ATOM_COUNT>
0

> <PUBCHEM_COMPONENT_COUNT>
3

> <PUBCHEM_CACTVS_TAUTO_COUNT>
-1

> <PUBCHEM_NONSTANDARDBOND>
1  20  6
1  21  6
1  22  6
1  23  6
1  24  6
1  40  6

> <PUBCHEM_COORDINATE_TYPE>
1
5
255

> <PUBCHEM_BONDANNOTATIONS>
92  10  5
101  104  8
104  107  8
106  109  5
24  60  8
24  61  8
25  61  8
25  69  8
26  101  8
26  102  8
80  26  5
34  102  8
34  104  8
35  101  8
35  108  8
36  107  8
36  108  8
38  52  6
39  110  5
68  4  6
51  40  5
41  63  6
43  54  1
44  64  5
45  67  5
46  66  6
47  53  1
49  59  1
79  5  6
55  75  6
57  73  6
58  74  6
60  69  8
60  78  8
69  86  8
78  90  8
85  166  6
86  91  8
90  91  8
95  179  6
99  103  6

$$$$
146157058
  -OEChem-04182609202D

209217  0     1  0  0  0  0  0999 V2000
    8.2212   -0.3103    0.0000 Co  0  1  0  0  0  0  0  0  0  0  0  0
   17.1646   -2.2894    0.0000 P   0  0  3  0  0  0  0  0  0  0  0  0
    9.9846   -4.1242    0.0000 O   0  0  0  0  0  0  0  0  0  0  0  0
   10.2315   -2.6705    0.0000 O   0  0  0  0  0  0  0  0  0  0  0  0
    8.6093    2.0652    0.0000 O   0  0  0  0  0  0  0  0  0  0  0  0
   13.6829    0.6902    0.0000 O   0  0  0  0  0  0  0  0  0  0  0  0
    4.2720   -4.8670    0.0000 O   0  0  0  0  0  0  0  0  0  0  0  0
    9.8733   -0.2207    0.0000 O   0  0  0  0  0  0  0  0  0  0  0  0
   11.0708    1.7344    0.0000 O   0  0  0  0  0  0  0  0  0  0  0  0
    3.8405   -2.5164    0.0000 O   0  0  0  0  0  0  0  0  0  0  0  0
    6.6440    4.4968    0.0000 O   0  0  0  0  0  0  0  0  0  0  0  0
   16.5414   -1.5073    0.0000 O   0  0  0  0  0  0  0  0  0  0  0  0
    2.4145    2.0280    0.0000 O   0  0  0  0  0  0  0  0  0  0  0  0
   17.7878   -3.0714    0.0000 O   0  0  0  0  0  0  0  0  0  0  0  0
   17.9467   -1.6662    0.0000 O   0  5  0  0  0  0  0  0  0  0  0  0
   16.3825   -2.9126    0.0000 O   0  0  0  0  0  0  0  0  0  0  0  0
   20.3728   -3.1884    0.0000 O   0  0  0  0  0  0  0  0  0  0  0  0
   18.7907   -1.1408    0.0000 O   0  0  0  0  0  0  0  0  0  0  0  0
   20.0862   -5.2572    0.0000 O   0  0  0  0  0  0  0  0  0  0  0  0
    9.2206   -0.2755    0.0000 N   0  5  0  0  0  0  0  0  0  0  0  0
    7.7592   -1.6083    0.0000 N   0  0  0  0  0  0  0  0  0  0  0  0
    7.7266    1.0572    0.0000 N   0  0  0  0  0  0  0  0  0  0  0  0
    6.2961   -0.2755    0.0000 N   0  0  0  0  0  0  0  0  0  0  0  0
    9.1278   -5.6296    0.0000 N   0  0  0  0  0  0  0  0  0  0  0  0
   11.9119   -3.0903    0.0000 N   0  0  0  0  0  0  0  0  0  0  0  0
   13.9404   -1.0226    0.0000 N   0  0  0  0  0  0  0  0  0  0  0  0
    5.7720   -5.7330    0.0000 N   0  0  0  0  0  0  0  0  0  0  0  0
    9.9544    3.2341    0.0000 N   0  0  0  0  0  0  0  0  0  0  0  0
    2.3218   -1.6836    0.0000 N   0  0  0  0  0  0  0  0  0  0  0  0
    7.6410    5.9131    0.0000 N   0  0  0  0  0  0  0  0  0  0  0  0
    3.4632    3.4064    0.0000 N   0  0  0  0  0  0  0  0  0  0  0  0
   10.0640    4.8399    0.0000 N   0  0  0  0  0  0  0  0  0  0  0  0
   11.7491    2.9159    0.0000 N   0  0  0  0  0  0  0  0  0  0  0  0
   12.7153    4.3534    0.0000 N   0  0  0  0  0  0  0  0  0  0  0  0
   11.9535    5.9089    0.0000 N   0  0  0  0  0  0  0  0  0  0  0  0
   20.9367   -1.4980    0.0000 N   0  0  0  0  0  0  0  0  0  0  0  0
   21.6762   -0.0685    0.0000 N   0  0  0  0  0  0  0  0  0  0  0  0
    8.5396   -2.1932    0.0000 C   0  0  1  0  0  0  0  0  0  0  0  0
    9.8056   -0.9908    0.0000 C   0  0  3  0  0  0  0  0  0  0  0  0
    8.2464   -3.1350    0.0000 C   0  0  2  0  0  0  0  0  0  0  0  0
   10.7163   -0.7301    0.0000 C   0  0  3  0  0  0  0  0  0  0  0  0
   10.7163    0.2441    0.0000 C   0  0  2  0  0  0  0  0  0  0  0  0
    7.2720   -3.1350    0.0000 C   0  0  3  0  0  0  0  0  0  0  0  0
    9.7730    0.5049    0.0000 C   0  0  0  0  0  0  0  0  0  0  0  0
    6.9787   -2.2258    0.0000 C   0  0  0  0  0  0  0  0  0  0  0  0
    9.3887   -2.7214    0.0000 C   0  0  0  0  0  0  0  0  0  0  0  0
    8.2526   -4.1350    0.0000 C   0  0  0  0  0  0  0  0  0  0  0  0
    9.1993   -3.4381    0.0000 C   0  0  0  0  0  0  0  0  0  0  0  0
   11.4353   -1.4251    0.0000 C   0  0  0  0  0  0  0  0  0  0  0  0
   11.7051    0.3928    0.0000 C   0  0  0  0  0  0  0  0  0  0  0  0
    6.7720   -4.0010    0.0000 C   0  0  0  0  0  0  0  0  0  0  0  0
   11.2079    1.1149    0.0000 C   0  0  0  0  0  0  0  0  0  0  0  0
    9.4813    1.4140    0.0000 C   0  0  0  0  0  0  0  0  0  0  0  0
    6.0370   -1.9325    0.0000 C   0  0  0  0  0  0  0  0  0  0  0  0
   12.3283   -0.3892    0.0000 C   0  0  0  0  0  0  0  0  0  0  0  0
    9.1217   -4.6296    0.0000 C   0  0  0  0  0  0  0  0  0  0  0  0
    5.7720   -4.0010    0.0000 C   0  0  0  0  0  0  0  0  0  0  0  0
    8.5396    1.7073    0.0000 C   0  0  0  0  0  0  0  0  0  0  0  0
   11.1929   -2.3953    0.0000 C   0  0  0  0  0  0  0  0  0  0  0  0
    5.7438   -1.0234    0.0000 C   0  0  0  0  0  0  0  0  0  0  0  0
    4.8021   -0.7627    0.0000 C   0  0  2  0  0  0  0  0  0  0  0  0
    8.2138    2.6164    0.0000 C   0  0  3  0  0  0  0  0  0  0  0  0
    7.2394    2.6164    0.0000 C   0  0  0  0  0  0  0  0  0  0  0  0
   10.2162    2.0922    0.0000 C   0  0  0  0  0  0  0  0  0  0  0  0
    7.6914    0.5378    0.0000 C   0  5  0  0  0  0  0  0  0  0  0  0
    4.8021    0.2115    0.0000 C   0  0  3  0  0  0  0  0  0  0  0  0
    5.3663   -2.6742    0.0000 C   0  0  0  0  0  0  0  0  0  0  0  0
    6.9461    1.6747    0.0000 C   0  0  0  0  0  0  0  0  0  0  0  0
    5.7438    0.4723    0.0000 C   0  0  0  0  0  0  0  0  0  0  0  0
    8.5395    1.0676    0.0000 C   0  0  3  0  0  0  0  0  0  0  0  0
   13.3172   -0.2406    0.0000 C   0  0  0  0  0  0  0  0  0  0  0  0
    8.7894    3.4341    0.0000 C   0  0  0  0  0  0  0  0  0  0  0  0
    3.8023   -0.7847    0.0000 C   0  0  0  0  0  0  0  0  0  0  0  0
    5.2720   -4.8670    0.0000 C   0  0  0  0  0  0  0  0  0  0  0  0
    4.5141   -1.7203    0.0000 C   0  0  0  0  0  0  0  0  0  0  0  0
    6.0045    1.4140    0.0000 C   0  0  0  0  0  0  0  0  0  0  0  0
    4.0062    0.8170    0.0000 C   0  0  0  0  0  0  0  0  0  0  0  0
    7.2333    3.6164    0.0000 C   0  0  0  0  0  0  0  0  0  0  0  0
    6.2865    2.9196    0.0000 C   0  0  0  0  0  0  0  0  0  0  0  0
    9.4666    0.6929    0.0000 C   0  0  3  0  0  0  0  0  0  0  0  0
   10.1095    1.4589    0.0000 C   0  0  3  0  0  0  0  0  0  0  0  0
    8.3690    4.3415    0.0000 C   0  0  0  0  0  0  0  0  0  0  0  0
    9.5797    2.3070    0.0000 C   0  0  3  0  0  0  0  0  0  0  0  0
    4.1326    1.8090    0.0000 C   0  0  0  0  0  0  0  0  0  0  0  0
    3.3215   -1.6616    0.0000 C   0  0  0  0  0  0  0  0  0  0  0  0
   14.9293   -0.8739    0.0000 C   0  0  0  0  0  0  0  0  0  0  0  0
    7.5513    4.9171    0.0000 C   0  0  0  0  0  0  0  0  0  0  0  0
    3.3368    2.4145    0.0000 C   0  0  0  0  0  0  0  0  0  0  0  0
   15.5525   -1.6560    0.0000 C   0  0  3  0  0  0  0  0  0  0  0  0
   10.9191    3.4737    0.0000 C   0  0  0  0  0  0  0  0  0  0  0  0
    9.4269    4.0768    0.0000 C   0  0  0  0  0  0  0  0  0  0  0  0
   15.1868   -2.5868    0.0000 C   0  0  0  0  0  0  0  0  0  0  0  0
   10.9873    4.4714    0.0000 C   0  0  0  0  0  0  0  0  0  0  0  0
   11.8853    4.9112    0.0000 C   0  0  0  0  0  0  0  0  0  0  0  0
   12.6472    3.3557    0.0000 C   0  0  0  0  0  0  0  0  0  0  0  0
   18.7767   -2.9228    0.0000 C   0  0  3  0  0  0  0  0  0  0  0  0
   19.2377   -2.0354    0.0000 C   0  0  3  0  0  0  0  0  0  0  0  0
   19.4782   -3.6354    0.0000 C   0  0  3  0  0  0  0  0  0  0  0  0
   20.2241   -2.1995    0.0000 C   0  0  3  0  0  0  0  0  0  0  0  0
   19.3140   -4.6218    0.0000 C   0  0  0  0  0  0  0  0  0  0  0  0
   21.9172   -1.6621    0.0000 C   0  0  0  0  0  0  0  0  0  0  0  0
   20.7881   -0.5151    0.0000 C   0  0  0  0  0  0  0  0  0  0  0  0
   22.3766   -0.7738    0.0000 C   0  0  0  0  0  0  0  0  0  0  0  0
   22.4567   -2.5040    0.0000 C   0  0  0  0  0  0  0  0  0  0  0  0
   23.3755   -0.7276    0.0000 C   0  0  0  0  0  0  0  0  0  0  0  0
   23.4556   -2.4578    0.0000 C   0  0  0  0  0  0  0  0  0  0  0  0
   23.9150   -1.5696    0.0000 C   0  0  0  0  0  0  0  0  0  0  0  0
   23.9951   -3.2998    0.0000 C   0  0  0  0  0  0  0  0  0  0  0  0
   24.9140   -1.5234    0.0000 C   0  0  0  0  0  0  0  0  0  0  0  0
   10.1132   -1.5291    0.0000 H   0  0  0  0  0  0  0  0  0  0  0  0
   11.2870   -0.4880    0.0000 H   0  0  0  0  0  0  0  0  0  0  0  0
    6.6555   -3.0695    0.0000 H   0  0  0  0  0  0  0  0  0  0  0  0
    9.0612   -3.2479    0.0000 H   0  0  0  0  0  0  0  0  0  0  0  0
    9.9152   -3.0489    0.0000 H   0  0  0  0  0  0  0  0  0  0  0  0
    9.7162   -2.1950    0.0000 H   0  0  0  0  0  0  0  0  0  0  0  0
    7.6413   -4.0311    0.0000 H   0  0  0  0  0  0  0  0  0  0  0  0
    8.0441   -4.7189    0.0000 H   0  0  0  0  0  0  0  0  0  0  0  0
    9.0114   -4.0289    0.0000 H   0  0  0  0  0  0  0  0  0  0  0  0
    9.7902   -3.6260    0.0000 H   0  0  0  0  0  0  0  0  0  0  0  0
    9.3873   -2.8473    0.0000 H   0  0  0  0  0  0  0  0  0  0  0  0
   12.0015   -1.6775    0.0000 H   0  0  0  0  0  0  0  0  0  0  0  0
   11.7822   -0.9113    0.0000 H   0  0  0  0  0  0  0  0  0  0  0  0
   12.2497    0.6891    0.0000 H   0  0  0  0  0  0  0  0  0  0  0  0
   11.5079    0.9806    0.0000 H   0  0  0  0  0  0  0  0  0  0  0  0
    6.6644   -4.6116    0.0000 H   0  0  0  0  0  0  0  0  0  0  0  0
    7.3546   -4.2130    0.0000 H   0  0  0  0  0  0  0  0  0  0  0  0
   11.7478    0.8101    0.0000 H   0  0  0  0  0  0  0  0  0  0  0  0
   11.5127    1.6548    0.0000 H   0  0  0  0  0  0  0  0  0  0  0  0
   10.6680    1.4198    0.0000 H   0  0  0  0  0  0  0  0  0  0  0  0
   11.7837   -0.6856    0.0000 H   0  0  0  0  0  0  0  0  0  0  0  0
   12.5256   -0.9770    0.0000 H   0  0  0  0  0  0  0  0  0  0  0  0
    5.8797   -3.3904    0.0000 H   0  0  0  0  0  0  0  0  0  0  0  0
    5.1894   -3.7889    0.0000 H   0  0  0  0  0  0  0  0  0  0  0  0
    7.9282    3.1667    0.0000 H   0  0  0  0  0  0  0  0  0  0  0  0
   10.6367    1.6365    0.0000 H   0  0  0  0  0  0  0  0  0  0  0  0
   10.6718    2.5126    0.0000 H   0  0  0  0  0  0  0  0  0  0  0  0
    9.7957    2.5478    0.0000 H   0  0  0  0  0  0  0  0  0  0  0  0
    7.1656    0.2093    0.0000 H   0  0  0  0  0  0  0  0  0  0  0  0
    7.1440    0.8289    0.0000 H   0  0  0  0  0  0  0  0  0  0  0  0
    4.2466   -0.0638    0.0000 H   0  0  0  0  0  0  0  0  0  0  0  0
    4.9064   -2.2584    0.0000 H   0  0  0  0  0  0  0  0  0  0  0  0
    4.9504   -3.1341    0.0000 H   0  0  0  0  0  0  0  0  0  0  0  0
    5.8262   -3.0901    0.0000 H   0  0  0  0  0  0  0  0  0  0  0  0
    8.0081    1.3870    0.0000 H   0  0  0  0  0  0  0  0  0  0  0  0
    9.2267    2.9946    0.0000 H   0  0  0  0  0  0  0  0  0  0  0  0
    9.2982    3.7885    0.0000 H   0  0  0  0  0  0  0  0  0  0  0  0
    3.8965   -0.1719    0.0000 H   0  0  0  0  0  0  0  0  0  0  0  0
    3.2152   -0.5856    0.0000 H   0  0  0  0  0  0  0  0  0  0  0  0
    3.9204   -1.5418    0.0000 H   0  0  0  0  0  0  0  0  0  0  0  0
    4.3355   -2.3141    0.0000 H   0  0  0  0  0  0  0  0  0  0  0  0
    5.1078   -1.8989    0.0000 H   0  0  0  0  0  0  0  0  0  0  0  0
    5.5661    1.8524    0.0000 H   0  0  0  0  0  0  0  0  0  0  0  0
    9.6667   -5.9362    0.0000 H   0  0  0  0  0  0  0  0  0  0  0  0
    8.5928   -5.9429    0.0000 H   0  0  0  0  0  0  0  0  0  0  0  0
    3.4141    1.0010    0.0000 H   0  0  0  0  0  0  0  0  0  0  0  0
    3.7222    0.2659    0.0000 H   0  0  0  0  0  0  0  0  0  0  0  0
   12.5079   -2.9197    0.0000 H   0  0  0  0  0  0  0  0  0  0  0  0
   11.7616   -3.6918    0.0000 H   0  0  0  0  0  0  0  0  0  0  0  0
    7.8533    3.6202    0.0000 H   0  0  0  0  0  0  0  0  0  0  0  0
    7.2296    4.2364    0.0000 H   0  0  0  0  0  0  0  0  0  0  0  0
    6.6134    3.6126    0.0000 H   0  0  0  0  0  0  0  0  0  0  0  0
    6.4745    3.5104    0.0000 H   0  0  0  0  0  0  0  0  0  0  0  0
    5.6957    3.1076    0.0000 H   0  0  0  0  0  0  0  0  0  0  0  0
    6.0985    2.3288    0.0000 H   0  0  0  0  0  0  0  0  0  0  0  0
    9.0359    0.2470    0.0000 H   0  0  0  0  0  0  0  0  0  0  0  0
   10.4471    0.9389    0.0000 H   0  0  0  0  0  0  0  0  0  0  0  0
    8.9868    4.3940    0.0000 H   0  0  0  0  0  0  0  0  0  0  0  0
    7.8931    3.9442    0.0000 H   0  0  0  0  0  0  0  0  0  0  0  0
   10.1973    2.3610    0.0000 H   0  0  0  0  0  0  0  0  0  0  0  0
   13.7137   -1.5997    0.0000 H   0  0  0  0  0  0  0  0  0  0  0  0
    4.7247    1.6250    0.0000 H   0  0  0  0  0  0  0  0  0  0  0  0
    4.4166    2.3601    0.0000 H   0  0  0  0  0  0  0  0  0  0  0  0
    5.4620   -6.2700    0.0000 H   0  0  0  0  0  0  0  0  0  0  0  0
    6.3920   -5.7330    0.0000 H   0  0  0  0  0  0  0  0  0  0  0  0
   15.4739   -0.5776    0.0000 H   0  0  0  0  0  0  0  0  0  0  0  0
   14.7321   -0.2862    0.0000 H   0  0  0  0  0  0  0  0  0  0  0  0
   10.4899   -0.2855    0.0000 H   0  0  0  0  0  0  0  0  0  0  0  0
   11.2208    2.3360    0.0000 H   0  0  0  0  0  0  0  0  0  0  0  0
    2.0000   -1.1536    0.0000 H   0  0  0  0  0  0  0  0  0  0  0  0
    2.0237   -2.2272    0.0000 H   0  0  0  0  0  0  0  0  0  0  0  0
   15.9389   -2.1409    0.0000 H   0  0  0  0  0  0  0  0  0  0  0  0
    8.8084    4.1190    0.0000 H   0  0  0  0  0  0  0  0  0  0  0  0
    7.1340    6.2700    0.0000 H   0  0  0  0  0  0  0  0  0  0  0  0
    8.2035    6.1737    0.0000 H   0  0  0  0  0  0  0  0  0  0  0  0
   14.6098   -2.3600    0.0000 H   0  0  0  0  0  0  0  0  0  0  0  0
   14.9601   -3.1638    0.0000 H   0  0  0  0  0  0  0  0  0  0  0  0
   15.7639   -2.8135    0.0000 H   0  0  0  0  0  0  0  0  0  0  0  0
    2.9698    3.7818    0.0000 H   0  0  0  0  0  0  0  0  0  0  0  0
    4.0350    3.6461    0.0000 H   0  0  0  0  0  0  0  0  0  0  0  0
   13.1617    3.0098    0.0000 H   0  0  0  0  0  0  0  0  0  0  0  0
   12.5103    6.1816    0.0000 H   0  0  0  0  0  0  0  0  0  0  0  0
   11.4389    6.2547    0.0000 H   0  0  0  0  0  0  0  0  0  0  0  0
   18.5805   -3.5109    0.0000 H   0  0  0  0  0  0  0  0  0  0  0  0
   19.6060   -1.5366    0.0000 H   0  0  0  0  0  0  0  0  0  0  0  0
   19.9769   -4.0038    0.0000 H   0  0  0  0  0  0  0  0  0  0  0  0
   20.0371   -1.6084    0.0000 H   0  0  0  0  0  0  0  0  0  0  0  0
   18.7294   -4.4154    0.0000 H   0  0  0  0  0  0  0  0  0  0  0  0
   19.0092   -5.1617    0.0000 H   0  0  0  0  0  0  0  0  0  0  0  0
   19.1324   -0.6235    0.0000 H   0  0  0  0  0  0  0  0  0  0  0  0
   20.2374   -0.2303    0.0000 H   0  0  0  0  0  0  0  0  0  0  0  0
   19.9844   -5.8688    0.0000 H   0  0  0  0  0  0  0  0  0  0  0  0
   22.1718   -3.0547    0.0000 H   0  0  0  0  0  0  0  0  0  0  0  0
   23.6604   -0.1769    0.0000 H   0  0  0  0  0  0  0  0  0  0  0  0
   23.4731   -3.6343    0.0000 H   0  0  0  0  0  0  0  0  0  0  0  0
   24.3296   -3.8218    0.0000 H   0  0  0  0  0  0  0  0  0  0  0  0
   24.5171   -2.9653    0.0000 H   0  0  0  0  0  0  0  0  0  0  0  0
   24.9426   -2.1427    0.0000 H   0  0  0  0  0  0  0  0  0  0  0  0
   25.5333   -1.4947    0.0000 H   0  0  0  0  0  0  0  0  0  0  0  0
   24.8853   -0.9040    0.0000 H   0  0  0  0  0  0  0  0  0  0  0  0
  2 12  1  0  0  0  0
  2 14  1  0  0  0  0
  2 15  1  0  0  0  0
  2 16  2  0  0  0  0
  3 56  2  0  0  0  0
  4 59  2  0  0  0  0
  5 70  1  0  0  0  0
  5 83  1  0  0  0  0
  6 71  2  0  0  0  0
  7 74  2  0  0  0  0
  8 80  1  0  0  0  0
  8177  1  0  0  0  0
  9 81  1  0  0  0  0
  9178  1  0  0  0  0
 10 85  2  0  0  0  0
 11 87  2  0  0  0  0
 12 89  1  0  0  0  0
 13 88  2  0  0  0  0
 14 96  1  0  0  0  0
 17 98  1  0  0  0  0
 17 99  1  0  0  0  0
 18 97  1  0  0  0  0
 18199  1  0  0  0  0
 19100  1  0  0  0  0
 19201  1  0  0  0  0
 20 39  1  0  0  0  0
 20 44  1  0  0  0  0
 21 38  1  0  0  0  0
 21 45  2  0  0  0  0
 22 58  2  0  0  0  0
 22 68  1  0  0  0  0
 23 60  1  0  0  0  0
 23 69  2  0  0  0  0
 24 56  1  0  0  0  0
 24153  1  0  0  0  0
 24154  1  0  0  0  0
 25 59  1  0  0  0  0
 25157  1  0  0  0  0
 25158  1  0  0  0  0
 26 71  1  0  0  0  0
 26 86  1  0  0  0  0
 26170  1  0  0  0  0
 27 74  1  0  0  0  0
 27173  1  0  0  0  0
 27174  1  0  0  0  0
 28 83  1  0  0  0  0
 28 90  1  0  0  0  0
 28 91  1  0  0  0  0
 29 85  1  0  0  0  0
 29179  1  0  0  0  0
 29180  1  0  0  0  0
 30 87  1  0  0  0  0
 30183  1  0  0  0  0
 30184  1  0  0  0  0
 31 88  1  0  0  0  0
 31188  1  0  0  0  0
 31189  1  0  0  0  0
 32 91  2  0  0  0  0
 32 93  1  0  0  0  0
 33 90  2  0  0  0  0
 33 95  1  0  0  0  0
 34 94  1  0  0  0  0
 34 95  2  0  0  0  0
 35 94  1  0  0  0  0
 35191  1  0  0  0  0
 35192  1  0  0  0  0
 36 99  1  0  0  0  0
 36101  1  0  0  0  0
 36102  1  0  0  0  0
 37102  2  0  0  0  0
 37103  1  0  0  0  0
 38 39  1  0  0  0  0
 38 40  1  0  0  0  0
 38 46  1  6  0  0  0
 39 41  1  0  0  0  0
 39110  1  0  0  0  0
 40 43  1  0  0  0  0
 40 47  1  0  0  0  0
 40 48  1  6  0  0  0
 41 42  1  0  0  0  0
 41 49  1  0  0  0  0
 41111  1  0  0  0  0
 42 44  1  0  0  0  0
 42 50  1  0  0  0  0
 42 52  1  1  0  0  0
 43 45  1  0  0  0  0
 43 51  1  0  0  0  0
 43112  1  0  0  0  0
 44 53  2  3  0  0  0
 45 54  1  0  0  0  0
 46113  1  0  0  0  0
 46114  1  0  0  0  0
 46115  1  0  0  0  0
 47 56  1  0  0  0  0
 47116  1  0  0  0  0
 47117  1  0  0  0  0
 48118  1  0  0  0  0
 48119  1  0  0  0  0
 48120  1  0  0  0  0
 49 59  1  0  0  0  0
 49121  1  0  0  0  0
 49122  1  0  0  0  0
 50 55  1  0  0  0  0
 50123  1  0  0  0  0
 50124  1  0  0  0  0
 51 57  1  0  0  0  0
 51125  1  0  0  0  0
 51126  1  0  0  0  0
 52127  1  0  0  0  0
 52128  1  0  0  0  0
 52129  1  0  0  0  0
 53 58  1  0  0  0  0
 53 64  1  0  0  0  0
 54 60  2  3  0  0  0
 54 67  1  0  0  0  0
 55 71  1  0  0  0  0
 55130  1  0  0  0  0
 55131  1  0  0  0  0
 57 74  1  0  0  0  0
 57132  1  0  0  0  0
 57133  1  0  0  0  0
 58 62  1  0  0  0  0
 60 61  1  0  0  0  0
 61 66  1  0  0  0  0
 61 73  1  0  0  0  0
 61 75  1  6  0  0  0
 62 63  1  0  0  0  0
 62 72  1  0  0  0  0
 62134  1  0  0  0  0
 63 68  1  0  0  0  0
 63 78  1  0  0  0  0
 63 79  1  0  0  0  0
 64135  1  0  0  0  0
 64136  1  0  0  0  0
 64137  1  0  0  0  0
 65 70  1  0  0  0  0
 65138  1  0  0  0  0
 65139  1  0  0  0  0
 66 69  1  0  0  0  0
 66 77  1  0  0  0  0
 66140  1  0  0  0  0
 67141  1  0  0  0  0
 67142  1  0  0  0  0
 67143  1  0  0  0  0
 68 76  2  3  0  0  0
 69 76  1  0  0  0  0
 70 80  1  0  0  0  0
 70144  1  0  0  0  0
 72 82  1  0  0  0  0
 72145  1  0  0  0  0
 72146  1  0  0  0  0
 73 85  1  0  0  0  0
 73147  1  0  0  0  0
 73148  1  0  0  0  0
 75149  1  0  0  0  0
 75150  1  0  0  0  0
 75151  1  0  0  0  0
 76152  1  0  0  0  0
 77 84  1  0  0  0  0
 77155  1  0  0  0  0
 77156  1  0  0  0  0
 78159  1  0  0  0  0
 78160  1  0  0  0  0
 78161  1  0  0  0  0
 79162  1  0  0  0  0
 79163  1  0  0  0  0
 79164  1  0  0  0  0
 80 81  1  0  0  0  0
 80165  1  0  0  0  0
 81 83  1  0  0  0  0
 81166  1  0  0  0  0
 82 87  1  0  0  0  0
 82167  1  0  0  0  0
 82168  1  0  0  0  0
 83169  1  0  0  0  0
 84 88  1  0  0  0  0
 84171  1  0  0  0  0
 84172  1  0  0  0  0
 86 89  1  0  0  0  0
 86175  1  0  0  0  0
 86176  1  0  0  0  0
 89 92  1  0  0  0  0
 89181  1  0  0  0  0
 90 93  1  0  0  0  0
 91182  1  0  0  0  0
 92185  1  0  0  0  0
 92186  1  0  0  0  0
 92187  1  0  0  0  0
 93 94  2  0  0  0  0
 95190  1  0  0  0  0
 96 97  1  0  0  0  0
 96 98  1  0  0  0  0
 96193  1  0  0  0  0
 97 99  1  0  0  0  0
 97194  1  0  0  0  0
 98100  1  0  0  0  0
 98195  1  0  0  0  0
 99196  1  0  0  0  0
100197  1  0  0  0  0
100198  1  0  0  0  0
101103  2  0  0  0  0
101104  1  0  0  0  0
102200  1  0  0  0  0
103105  1  0  0  0  0
104106  2  0  0  0  0
104202  1  0  0  0  0
105107  2  0  0  0  0
105203  1  0  0  0  0
106107  1  0  0  0  0
106108  1  0  0  0  0
107109  1  0  0  0  0
108204  1  0  0  0  0
108205  1  0  0  0  0
108206  1  0  0  0  0
109207  1  0  0  0  0
109208  1  0  0  0  0
109209  1  0  0  0  0
M  CHG  4   1   3  15  -1  20  -1  65  -1
M  END
> <PUBCHEM_COMPOUND_CID>
146157058

> <PUBCHEM_COMPOUND_CANONICALIZED>
1

> <PUBCHEM_CACTVS_COMPLEXITY>
3730

> <PUBCHEM_CACTVS_HBOND_ACCEPTOR>
27

> <PUBCHEM_CACTVS_HBOND_DONOR>
12

> <PUBCHEM_CACTVS_ROTATABLE_BOND>
27

> <PUBCHEM_CACTVS_SUBSKEYS>
AAADcfB//gIAAAAQAAAAAAAAAAAAAWLFiRI8QAAAAAAAAFgB/gAAHgAQCCAAD7zhnwY38L/MFxCoQydzdICCgC0xEqAB2KE4dJiLeLLA2dGeZAhvlgLbyCf8ucKfiAAAQAAQACAQAACAACAAQAAAAAAAAA==

> <PUBCHEM_IUPAC_OPENEYE_NAME>
cobaltic;2-(6-aminopurin-9-yl)-5-methanidyl-tetrahydrofuran-3,4-diol;[5-(5,6-dimethylbenzimidazol-1-yl)-4-hydroxy-2-(hydroxymethyl)tetrahydrofuran-3-yl] [1-methyl-2-[3-[(3R,13S,18S,19R)-2,13,18-tris(2-amino-2-oxo-ethyl)-7,12,17-tris(3-amino-3-oxo-propyl)-3,5,8,8,13,15,18,19-octamethyl-2,7,12,17-tetrahydro-1H-corrin-21-id-3-yl]propanoylamino]ethyl] phosphate

> <PUBCHEM_IUPAC_CAS_NAME>
2-(6-aminopurin-9-yl)-5-methanidyloxolane-3,4-diol;cobalt(3+);[5-(5,6-dimethyl-1-benzimidazolyl)-4-hydroxy-2-(hydroxymethyl)-3-oxolanyl] 1-[[1-oxo-3-[(3R,13S,18S,19R)-2,13,18-tris(2-amino-2-oxoethyl)-7,12,17-tris(3-amino-3-oxopropyl)-3,5,8,8,13,15,18,19-octamethyl-2,7,12,17-tetrahydro-1H-corrin-21-id-3-yl]propyl]amino]propan-2-yl phosphate

> <PUBCHEM_IUPAC_NAME_MARKUP>
2-(6-aminopurin-9-yl)-5-methanidyloxolane-3,4-diol;cobalt(3+);[5-(5,6-dimethylbenzimidazol-1-yl)-4-hydroxy-2-(hydroxymethyl)oxolan-3-yl] 1-[3-[(3<I>R</I>,13<I>S</I>,18<I>S</I>,19<I>R</I>)-2,13,18-tris(2-amino-2-oxoethyl)-7,12,17-tris(3-amino-3-oxopropyl)-3,5,8,8,13,15,18,19-octamethyl-2,7,12,17-tetrahydro-1<I>H</I>-corrin-21-id-3-yl]propanoylamino]propan-2-yl phosphate

> <PUBCHEM_IUPAC_NAME>
2-(6-aminopurin-9-yl)-5-methanidyloxolane-3,4-diol;cobalt(3+);[5-(5,6-dimethylbenzimidazol-1-yl)-4-hydroxy-2-(hydroxymethyl)oxolan-3-yl] 1-[3-[(3R,13S,18S,19R)-2,13,18-tris(2-amino-2-oxoethyl)-7,12,17-tris(3-amino-3-oxopropyl)-3,5,8,8,13,15,18,19-octamethyl-2,7,12,17-tetrahydro-1H-corrin-21-id-3-yl]propanoylamino]propan-2-yl phosphate

> <PUBCHEM_IUPAC_SYSTEMATIC_NAME>
2-(6-aminopurin-9-yl)-5-methanidyl-oxolane-3,4-diol;cobalt(3+);[5-(5,6-dimethylbenzimidazol-1-yl)-2-(hydroxymethyl)-4-oxidanyl-oxolan-3-yl] 1-[3-[(3R,13S,18S,19R)-2,13,18-tris(2-azanyl-2-oxidanylidene-ethyl)-7,12,17-tris(3-azanyl-3-oxidanylidene-propyl)-3,5,8,8,13,15,18,19-octamethyl-2,7,12,17-tetrahydro-1H-corrin-21-id-3-yl]propanoylamino]propan-2-yl phosphate

> <PUBCHEM_IUPAC_TRADITIONAL_NAME>
cobaltic;2-adenin-9-yl-5-methanidyl-tetrahydrofuran-3,4-diol;[5-(5,6-dimethylbenzimidazol-1-yl)-4-hydroxy-2-methylol-tetrahydrofuran-3-yl] [1-methyl-2-[3-[(3R,13S,18S,19R)-2,13,18-tris(2-amino-2-keto-ethyl)-7,12,17-tris(3-amino-3-keto-propyl)-3,5,8,8,13,15,18,19-octamethyl-2,7,12,17-tetrahydro-1H-corrin-21-id-3-yl]propanoylamino]ethyl] phosphate

> <PUBCHEM_IUPAC_INCHI>
InChI=1S/C62H90N13O14P.C10H12N5O3.Co/c1-29-20-39-40(21-30(29)2)75(28-70-39)57-52(84)53(41(27-76)87-57)89-90(85,86)88-31(3)26-69-49(83)18-19-59(8)37(22-46(66)80)56-62(11)61(10,25-48(68)82)36(14-17-45(65)79)51(74-62)33(5)55-60(9,24-47(67)81)34(12-15-43(63)77)38(71-55)23-42-58(6,7)35(13-16-44(64)78)50(72-42)32(4)54(59)73-56;1-4-6(16)7(17)10(18-4)15-3-14-5-8(11)12-2-13-9(5)15;/h20-21,23,28,31,34-37,41,52-53,56-57,76,84H,12-19,22,24-27H2,1-11H3,(H15,63,64,65,66,67,68,69,71,72,73,74,77,78,79,80,81,82,83,85,86);2-4,6-7,10,16-17H,1H2,(H2,11,12,13);/q;-1;+3/p-2/t31?,34?,35?,36?,37?,41?,52?,53?,56?,57?,59-,60+,61+,62+;;/m1../s1

> <PUBCHEM_IUPAC_INCHIKEY>
OAJLVMGLJZXSGX-AZCDKEHOSA-L

> <PUBCHEM_EXACT_MASS>
1578.658339

> <PUBCHEM_MOLECULAR_FORMULA>
C72H100CoN18O17P

> <PUBCHEM_MOLECULAR_WEIGHT>
1579.6

> <PUBCHEM_SMILES>
CC1=CC2=C(C=C1C)N(C=N2)C3C(C(C(O3)CO)OP(=O)([O-])OC(C)CNC(=O)CC[C@@]4(C(C5[C@]6([C@@](C(C(=N6)C(=C7[C@@](C(C(=N7)C=C8C(C(C(=N8)C(=C4[N-]5)C)CCC(=O)N)(C)C)CCC(=O)N)(C)CC(=O)N)C)CCC(=O)N)(C)CC(=O)N)C)CC(=O)N)C)O.[CH2-]C1C(C(C(O1)N2C=NC3=C(N=CN=C32)N)O)O.[Co+3]

> <PUBCHEM_CONNECTIVITY_SMILES>
CC1=CC2=C(C=C1C)N(C=N2)C3C(C(C(O3)CO)OP(=O)([O-])OC(C)CNC(=O)CCC4(C(C5C6(C(C(C(=N6)C(=C7C(C(C(=N7)C=C8C(C(C(=N8)C(=C4[N-]5)C)CCC(=O)N)(C)C)CCC(=O)N)(C)CC(=O)N)C)CCC(=O)N)(C)CC(=O)N)C)CC(=O)N)C)O.[CH2-]C1C(C(C(O1)N2C=NC3=C(N=CN=C32)N)O)O.[Co+3]

> <PUBCHEM_CACTVS_TPSA>
571

> <PUBCHEM_MONOISOTOPIC_WEIGHT>
1578.658339

> <PUBCHEM_TOTAL_CHARGE>
0

> <PUBCHEM_HEAVY_ATOM_COUNT>
109

> <PUBCHEM_ATOM_DEF_STEREO_COUNT>
4

> <PUBCHEM_ATOM_UDEF_STEREO_COUNT>
14

> <PUBCHEM_BOND_DEF_STEREO_COUNT>
0

> <PUBCHEM_BOND_UDEF_STEREO_COUNT>
3

> <PUBCHEM_ISOTOPIC_ATOM_COUNT>
0

> <PUBCHEM_COMPONENT_COUNT>
3

> <PUBCHEM_CACTVS_TAUTO_COUNT>
-1

> <PUBCHEM_NONSTANDARDBOND>
1  20  6
1  65  6

> <PUBCHEM_COORDINATE_TYPE>
1
5
255

> <PUBCHEM_BONDANNOTATIONS>
101  103  8
101  104  8
103  105  8
104  106  8
105  107  8
106  107  8
96  14  3
97  18  3
39  20  3
83  28  3
28  90  8
28  91  8
32  91  8
32  93  8
33  90  8
33  95  8
34  94  8
34  95  8
36  101  8
36  102  8
99  36  3
37  102  8
37  103  8
38  46  6
40  48  6
41  49  3
42  52  5
43  51  3
44  53  1
54  60  1
61  75  6
62  72  3
70  65  3
66  77  3
68  76  1
80  8  3
89  92  3
81  9  3
90  93  8
93  94  8
98  100  3

$$$$
157787771
  -OEChem-04182609202D

209217  0     1  0  0  0  0  0999 V2000
    0.0000   11.8382    0.0000 Co  0  0  0  0  0  0  0  0  0  0  0  0
   17.7612   10.8318    0.0000 P   0  0  3  0  0  0  0  0  0  0  0  0
   11.6112    2.1457    0.0000 O   0  0  0  0  0  0  0  0  0  0  0  0
   14.2657    6.0902    0.0000 O   0  0  0  0  0  0  0  0  0  0  0  0
   15.3096    6.9601    0.0000 O   0  0  0  0  0  0  0  0  0  0  0  0
    5.8987    1.4030    0.0000 O   0  0  0  0  0  0  0  0  0  0  0  0
    5.4671    3.7536    0.0000 O   0  0  0  0  0  0  0  0  0  0  0  0
   11.5673   11.3395    0.0000 O   0  0  0  0  0  0  0  0  0  0  0  0
    4.0411    8.2979    0.0000 O   0  0  0  0  0  0  0  0  0  0  0  0
   17.3955    9.9010    0.0000 O   0  0  0  0  0  0  0  0  0  0  0  0
   18.1269   11.7625    0.0000 O   0  0  0  0  0  0  0  0  0  0  0  0
   18.6919   10.4661    0.0000 O   0  5  0  0  0  0  0  0  0  0  0  0
   16.8305   11.1975    0.0000 O   0  0  0  0  0  0  0  0  0  0  0  0
   20.5632   12.6344    0.0000 O   0  0  0  0  0  0  0  0  0  0  0  0
   19.6531   10.2121    0.0000 O   0  0  0  0  0  0  0  0  0  0  0  0
   19.6810   14.5275    0.0000 O   0  0  0  0  0  0  0  0  0  0  0  0
   15.7962   21.4539    0.0000 O   0  0  0  0  0  0  0  0  0  0  0  0
   13.2582   21.9583    0.0000 O   0  0  0  0  0  0  0  0  0  0  0  0
   14.5400   23.7162    0.0000 O   0  0  0  0  0  0  0  0  0  0  0  0
    9.3859    4.6617    0.0000 N   0  0  0  0  0  0  0  0  0  0  0  0
   10.8473    5.9944    0.0000 N   0  5  0  0  0  0  0  0  0  0  0  0
    7.9227    5.9944    0.0000 N   0  0  0  0  0  0  0  0  0  0  0  0
    9.3533    7.3272    0.0000 N   0  0  0  0  0  0  0  0  0  0  0  0
   10.7545    0.6404    0.0000 N   0  0  0  0  0  0  0  0  0  0  0  0
   14.7423    4.4250    0.0000 N   0  0  0  0  0  0  0  0  0  0  0  0
   15.0521    8.6729    0.0000 N   0  0  0  0  0  0  0  0  0  0  0  0
    7.3987    0.5369    0.0000 N   0  0  0  0  0  0  0  0  0  0  0  0
    3.9484    4.5864    0.0000 N   0  0  0  0  0  0  0  0  0  0  0  0
   10.1510   12.3365    0.0000 N   0  0  0  0  0  0  0  0  0  0  0  0
    2.9924    6.9194    0.0000 N   0  0  0  0  0  0  0  0  0  0  0  0
   21.5993   11.1846    0.0000 N   0  0  0  0  0  0  0  0  0  0  0  0
   22.7264   10.0357    0.0000 N   0  0  0  0  0  0  0  0  0  0  0  0
   14.5339   20.1961    0.0000 N   0  0  0  0  0  0  0  0  0  0  0  0
   14.5339   18.5866    0.0000 N   0  0  0  0  0  0  0  0  0  0  0  0
   12.7217   20.3913    0.0000 N   0  0  0  0  0  0  0  0  0  0  0  0
   11.8556   18.8913    0.0000 N   0  0  0  0  0  0  0  0  0  0  0  0
   12.7217   17.3913    0.0000 N   0  0  0  0  0  0  0  0  0  0  0  0
   10.1663    4.0767    0.0000 C   0  0  2  0  0  0  0  0  0  0  0  0
    9.8730    3.1350    0.0000 C   0  0  2  0  0  0  0  0  0  0  0  0
   11.4322    5.2792    0.0000 C   0  0  1  0  0  0  0  0  0  0  0  0
   12.3429    5.5399    0.0000 C   0  0  1  0  0  0  0  0  0  0  0  0
    8.8987    3.1350    0.0000 C   0  0  1  0  0  0  0  0  0  0  0  0
   12.3429    6.5141    0.0000 C   0  0  2  0  0  0  0  0  0  0  0  0
    8.6054    4.0441    0.0000 C   0  0  0  0  0  0  0  0  0  0  0  0
    9.8792    2.1350    0.0000 C   0  0  0  0  0  0  0  0  0  0  0  0
   11.3996    6.7748    0.0000 C   0  0  0  0  0  0  0  0  0  0  0  0
   11.0154    3.5485    0.0000 C   0  0  0  0  0  0  0  0  0  0  0  0
   10.8260    2.8319    0.0000 C   0  0  0  0  0  0  0  0  0  0  0  0
    8.3987    2.2690    0.0000 C   0  0  0  0  0  0  0  0  0  0  0  0
   13.0619    4.8449    0.0000 C   0  0  0  0  0  0  0  0  0  0  0  0
   13.3318    6.6628    0.0000 C   0  0  0  0  0  0  0  0  0  0  0  0
   12.5071    7.5005    0.0000 C   0  0  0  0  0  0  0  0  0  0  0  0
    7.6637    4.3374    0.0000 C   0  0  0  0  0  0  0  0  0  0  0  0
   11.1080    7.6839    0.0000 C   0  0  0  0  0  0  0  0  0  0  0  0
    7.3987    2.2690    0.0000 C   0  0  0  0  0  0  0  0  0  0  0  0
   10.7483    1.6404    0.0000 C   0  0  0  0  0  0  0  0  0  0  0  0
   13.6975    7.5935    0.0000 C   0  0  0  0  0  0  0  0  0  0  0  0
    7.3705    5.2466    0.0000 C   0  0  0  0  0  0  0  0  0  0  0  0
    6.4287    5.5073    0.0000 C   0  0  2  0  0  0  0  0  0  0  0  0
   10.1663    7.9772    0.0000 C   0  0  0  0  0  0  0  0  0  0  0  0
   14.0233    5.1200    0.0000 C   0  0  0  0  0  0  0  0  0  0  0  0
    9.8404    8.8864    0.0000 C   0  0  2  0  0  0  0  0  0  0  0  0
    6.4287    6.4815    0.0000 C   0  0  1  0  0  0  0  0  0  0  0  0
    8.8661    8.8864    0.0000 C   0  0  0  0  0  0  0  0  0  0  0  0
    6.9930    3.5957    0.0000 C   0  0  0  0  0  0  0  0  0  0  0  0
   11.8429    8.3621    0.0000 C   0  0  0  0  0  0  0  0  0  0  0  0
    7.3705    6.7422    0.0000 C   0  0  0  0  0  0  0  0  0  0  0  0
    8.5728    7.9446    0.0000 C   0  0  0  0  0  0  0  0  0  0  0  0
    5.4290    5.4852    0.0000 C   0  0  0  0  0  0  0  0  0  0  0  0
    6.1408    4.5496    0.0000 C   0  0  0  0  0  0  0  0  0  0  0  0
   10.4161    9.7041    0.0000 C   0  0  0  0  0  0  0  0  0  0  0  0
    5.6329    7.0870    0.0000 C   0  0  0  0  0  0  0  0  0  0  0  0
   14.6864    7.7422    0.0000 C   0  0  0  0  0  0  0  0  0  0  0  0
    6.8987    1.4030    0.0000 C   0  0  0  0  0  0  0  0  0  0  0  0
    7.6312    7.6839    0.0000 C   0  0  0  0  0  0  0  0  0  0  0  0
    8.8600    9.8864    0.0000 C   0  0  0  0  0  0  0  0  0  0  0  0
    7.9132    9.1896    0.0000 C   0  0  0  0  0  0  0  0  0  0  0  0
    9.9957   10.6115    0.0000 C   0  0  0  0  0  0  0  0  0  0  0  0
    4.7106    6.7005    0.0000 C   0  0  0  0  0  0  0  0  0  0  0  0
    4.9482    4.6084    0.0000 C   0  0  0  0  0  0  0  0  0  0  0  0
   16.0409    8.8216    0.0000 C   0  0  0  0  0  0  0  0  0  0  0  0
   10.5713   11.4292    0.0000 C   0  0  0  0  0  0  0  0  0  0  0  0
    3.9147    7.3060    0.0000 C   0  0  0  0  0  0  0  0  0  0  0  0
   16.4066    9.7524    0.0000 C   0  0  1  0  0  0  0  0  0  0  0  0
   15.7834   10.5344    0.0000 C   0  0  0  0  0  0  0  0  0  0  0  0
   19.1158   11.9112    0.0000 C   0  0  1  0  0  0  0  0  0  0  0  0
   19.8173   11.1986    0.0000 C   0  0  2  0  0  0  0  0  0  0  0  0
   19.5767   12.7986    0.0000 C   0  0  1  0  0  0  0  0  0  0  0  0
   20.7118   11.6455    0.0000 C   0  0  2  0  0  0  0  0  0  0  0  0
   19.1298   13.6931    0.0000 C   0  0  0  0  0  0  0  0  0  0  0  0
   22.4881   11.6297    0.0000 C   0  0  0  0  0  0  0  0  0  0  0  0
   21.7462   10.2014    0.0000 C   0  0  0  0  0  0  0  0  0  0  0  0
   23.1884   10.9158    0.0000 C   0  0  0  0  0  0  0  0  0  0  0  0
   22.7562   12.5931    0.0000 C   0  0  0  0  0  0  0  0  0  0  0  0
   24.1568   11.1654    0.0000 C   0  0  0  0  0  0  0  0  0  0  0  0
   23.7245   12.8426    0.0000 C   0  0  0  0  0  0  0  0  0  0  0  0
   24.4248   12.1288    0.0000 C   0  0  0  0  0  0  0  0  0  0  0  0
   23.9926   13.8060    0.0000 C   0  0  0  0  0  0  0  0  0  0  0  0
   25.3932   12.3783    0.0000 C   0  0  0  0  0  0  0  0  0  0  0  0
   14.2582   21.9566    0.0000 C   0  0  1  0  0  0  0  0  0  0  0  0
   14.8446   21.1466    0.0000 C   0  0  1  0  0  0  0  0  0  0  0  0
   14.8474   22.7646    0.0000 C   0  0  1  0  0  0  0  0  0  0  0  0
   15.7979   22.4539    0.0000 C   0  0  1  0  0  0  0  0  0  0  0  0
   13.5877   19.8913    0.0000 C   0  0  0  0  0  0  0  0  0  0  0  0
   16.6079   23.0403    0.0000 C   0  5  0  0  0  0  0  0  0  0  0  0
   15.1175   19.3913    0.0000 C   0  0  0  0  0  0  0  0  0  0  0  0
   13.5877   18.8913    0.0000 C   0  0  0  0  0  0  0  0  0  0  0  0
   12.7217   18.3913    0.0000 C   0  0  0  0  0  0  0  0  0  0  0  0
   11.8556   19.8913    0.0000 C   0  0  0  0  0  0  0  0  0  0  0  0
   11.8540    4.5412    0.0000 H   0  0  0  0  0  0  0  0  0  0  0  0
   12.9137    5.7820    0.0000 H   0  0  0  0  0  0  0  0  0  0  0  0
    8.2822    3.2004    0.0000 H   0  0  0  0  0  0  0  0  0  0  0  0
    9.2680    2.2389    0.0000 H   0  0  0  0  0  0  0  0  0  0  0  0
    9.6708    1.5511    0.0000 H   0  0  0  0  0  0  0  0  0  0  0  0
   10.6879    3.0221    0.0000 H   0  0  0  0  0  0  0  0  0  0  0  0
   11.5418    3.2210    0.0000 H   0  0  0  0  0  0  0  0  0  0  0  0
   11.3429    4.0750    0.0000 H   0  0  0  0  0  0  0  0  0  0  0  0
   10.6380    2.2410    0.0000 H   0  0  0  0  0  0  0  0  0  0  0  0
   11.4168    2.6439    0.0000 H   0  0  0  0  0  0  0  0  0  0  0  0
   11.0139    3.4227    0.0000 H   0  0  0  0  0  0  0  0  0  0  0  0
    8.2910    1.6584    0.0000 H   0  0  0  0  0  0  0  0  0  0  0  0
    8.9813    2.0569    0.0000 H   0  0  0  0  0  0  0  0  0  0  0  0
   12.5602    4.4807    0.0000 H   0  0  0  0  0  0  0  0  0  0  0  0
   13.3334    4.2875    0.0000 H   0  0  0  0  0  0  0  0  0  0  0  0
   13.3161    6.0430    0.0000 H   0  0  0  0  0  0  0  0  0  0  0  0
   13.9395    6.5397    0.0000 H   0  0  0  0  0  0  0  0  0  0  0  0
   13.1187    7.3987    0.0000 H   0  0  0  0  0  0  0  0  0  0  0  0
   12.6089    8.1121    0.0000 H   0  0  0  0  0  0  0  0  0  0  0  0
   11.8955    7.6023    0.0000 H   0  0  0  0  0  0  0  0  0  0  0  0
    7.5064    2.8796    0.0000 H   0  0  0  0  0  0  0  0  0  0  0  0
    6.8161    2.4810    0.0000 H   0  0  0  0  0  0  0  0  0  0  0  0
   13.7132    8.2133    0.0000 H   0  0  0  0  0  0  0  0  0  0  0  0
   13.0898    7.7166    0.0000 H   0  0  0  0  0  0  0  0  0  0  0  0
    9.5548    9.4367    0.0000 H   0  0  0  0  0  0  0  0  0  0  0  0
    5.8732    6.2061    0.0000 H   0  0  0  0  0  0  0  0  0  0  0  0
    6.5331    4.0116    0.0000 H   0  0  0  0  0  0  0  0  0  0  0  0
    6.5771    3.1358    0.0000 H   0  0  0  0  0  0  0  0  0  0  0  0
    7.4528    3.1799    0.0000 H   0  0  0  0  0  0  0  0  0  0  0  0
   12.2633    7.9065    0.0000 H   0  0  0  0  0  0  0  0  0  0  0  0
   12.2985    8.7826    0.0000 H   0  0  0  0  0  0  0  0  0  0  0  0
   11.4224    8.8178    0.0000 H   0  0  0  0  0  0  0  0  0  0  0  0
    5.5232    6.0980    0.0000 H   0  0  0  0  0  0  0  0  0  0  0  0
    4.8418    5.6844    0.0000 H   0  0  0  0  0  0  0  0  0  0  0  0
    5.5470    4.7282    0.0000 H   0  0  0  0  0  0  0  0  0  0  0  0
    5.9622    3.9559    0.0000 H   0  0  0  0  0  0  0  0  0  0  0  0
    6.7345    4.3711    0.0000 H   0  0  0  0  0  0  0  0  0  0  0  0
   10.8534    9.2646    0.0000 H   0  0  0  0  0  0  0  0  0  0  0  0
   10.9248   10.0584    0.0000 H   0  0  0  0  0  0  0  0  0  0  0  0
    6.0882    7.5077    0.0000 H   0  0  0  0  0  0  0  0  0  0  0  0
    5.2976    7.6085    0.0000 H   0  0  0  0  0  0  0  0  0  0  0  0
    7.1964    8.1260    0.0000 H   0  0  0  0  0  0  0  0  0  0  0  0
   11.2933    0.3337    0.0000 H   0  0  0  0  0  0  0  0  0  0  0  0
   10.2195    0.3271    0.0000 H   0  0  0  0  0  0  0  0  0  0  0  0
    9.4800    9.8901    0.0000 H   0  0  0  0  0  0  0  0  0  0  0  0
    8.8562   10.5063    0.0000 H   0  0  0  0  0  0  0  0  0  0  0  0
    8.2400    9.8826    0.0000 H   0  0  0  0  0  0  0  0  0  0  0  0
    8.1012    9.7804    0.0000 H   0  0  0  0  0  0  0  0  0  0  0  0
    7.3224    9.3776    0.0000 H   0  0  0  0  0  0  0  0  0  0  0  0
    7.7252    8.5988    0.0000 H   0  0  0  0  0  0  0  0  0  0  0  0
   15.3384    4.5956    0.0000 H   0  0  0  0  0  0  0  0  0  0  0  0
   14.5920    3.8235    0.0000 H   0  0  0  0  0  0  0  0  0  0  0  0
    9.5584   11.0509    0.0000 H   0  0  0  0  0  0  0  0  0  0  0  0
    9.4869   10.2571    0.0000 H   0  0  0  0  0  0  0  0  0  0  0  0
    4.2552    6.2797    0.0000 H   0  0  0  0  0  0  0  0  0  0  0  0
    5.0459    6.1790    0.0000 H   0  0  0  0  0  0  0  0  0  0  0  0
   14.6657    9.1578    0.0000 H   0  0  0  0  0  0  0  0  0  0  0  0
    7.0887    0.0000    0.0000 H   0  0  0  0  0  0  0  0  0  0  0  0
    8.0187    0.5369    0.0000 H   0  0  0  0  0  0  0  0  0  0  0  0
   16.0253    8.2018    0.0000 H   0  0  0  0  0  0  0  0  0  0  0  0
   16.6486    8.6985    0.0000 H   0  0  0  0  0  0  0  0  0  0  0  0
    3.6503    4.0427    0.0000 H   0  0  0  0  0  0  0  0  0  0  0  0
    3.6267    5.1163    0.0000 H   0  0  0  0  0  0  0  0  0  0  0  0
   16.7930    9.2675    0.0000 H   0  0  0  0  0  0  0  0  0  0  0  0
   10.5078   12.8435    0.0000 H   0  0  0  0  0  0  0  0  0  0  0  0
    9.5334   12.3921    0.0000 H   0  0  0  0  0  0  0  0  0  0  0  0
    2.4990    7.2948    0.0000 H   0  0  0  0  0  0  0  0  0  0  0  0
    2.9140    6.3044    0.0000 H   0  0  0  0  0  0  0  0  0  0  0  0
   16.2683   10.9208    0.0000 H   0  0  0  0  0  0  0  0  0  0  0  0
   15.3970   11.0193    0.0000 H   0  0  0  0  0  0  0  0  0  0  0  0
   15.2985   10.1480    0.0000 H   0  0  0  0  0  0  0  0  0  0  0  0
   18.9196   11.3231    0.0000 H   0  0  0  0  0  0  0  0  0  0  0  0
   20.3160   10.8302    0.0000 H   0  0  0  0  0  0  0  0  0  0  0  0
   19.9451   13.2973    0.0000 H   0  0  0  0  0  0  0  0  0  0  0  0
   20.7070   11.0256    0.0000 H   0  0  0  0  0  0  0  0  0  0  0  0
   18.6796   14.1195    0.0000 H   0  0  0  0  0  0  0  0  0  0  0  0
   18.6317   13.3239    0.0000 H   0  0  0  0  0  0  0  0  0  0  0  0
   20.1319    9.8182    0.0000 H   0  0  0  0  0  0  0  0  0  0  0  0
   21.3036    9.7672    0.0000 H   0  0  0  0  0  0  0  0  0  0  0  0
   19.4038   15.0821    0.0000 H   0  0  0  0  0  0  0  0  0  0  0  0
   22.3220   13.0357    0.0000 H   0  0  0  0  0  0  0  0  0  0  0  0
   24.5910   10.7228    0.0000 H   0  0  0  0  0  0  0  0  0  0  0  0
   24.5899   13.6398    0.0000 H   0  0  0  0  0  0  0  0  0  0  0  0
   24.1588   14.4033    0.0000 H   0  0  0  0  0  0  0  0  0  0  0  0
   23.3953   13.9722    0.0000 H   0  0  0  0  0  0  0  0  0  0  0  0
   25.5479   11.7780    0.0000 H   0  0  0  0  0  0  0  0  0  0  0  0
   25.9936   12.5331    0.0000 H   0  0  0  0  0  0  0  0  0  0  0  0
   25.2385   12.9787    0.0000 H   0  0  0  0  0  0  0  0  0  0  0  0
   13.9777   22.5095    0.0000 H   0  0  0  0  0  0  0  0  0  0  0  0
   14.2320   21.0506    0.0000 H   0  0  0  0  0  0  0  0  0  0  0  0
   15.2865   23.2023    0.0000 H   0  0  0  0  0  0  0  0  0  0  0  0
   16.3498   22.1715    0.0000 H   0  0  0  0  0  0  0  0  0  0  0  0
   17.1739   22.7872    0.0000 H   0  0  0  0  0  0  0  0  0  0  0  0
   16.5442   23.6570    0.0000 H   0  0  0  0  0  0  0  0  0  0  0  0
   12.9491   22.4958    0.0000 H   0  0  0  0  0  0  0  0  0  0  0  0
   14.9557   24.1762    0.0000 H   0  0  0  0  0  0  0  0  0  0  0  0
   15.7375   19.3913    0.0000 H   0  0  0  0  0  0  0  0  0  0  0  0
   11.3187   20.2013    0.0000 H   0  0  0  0  0  0  0  0  0  0  0  0
   12.1847   17.0813    0.0000 H   0  0  0  0  0  0  0  0  0  0  0  0
   13.2586   17.0813    0.0000 H   0  0  0  0  0  0  0  0  0  0  0  0
  2 10  1  0  0  0  0
  2 11  1  0  0  0  0
  2 12  1  0  0  0  0
  2 13  2  0  0  0  0
  3 56  2  0  0  0  0
  4 61  2  0  0  0  0
  5 73  2  0  0  0  0
  6 74  2  0  0  0  0
  7 80  2  0  0  0  0
  8 82  2  0  0  0  0
  9 83  2  0  0  0  0
 84 10  1  1  0  0  0
 86 11  1  6  0  0  0
 14 88  1  0  0  0  0
 14 89  1  0  0  0  0
 87 15  1  6  0  0  0
 15187  1  0  0  0  0
 16 90  1  0  0  0  0
 16189  1  0  0  0  0
 17101  1  0  0  0  0
 17103  1  0  0  0  0
100 18  1  6  0  0  0
 18204  1  0  0  0  0
102 19  1  6  0  0  0
 19205  1  0  0  0  0
 20 38  1  0  0  0  0
 20 44  2  0  0  0  0
 21 40  1  0  0  0  0
 21 46  1  0  0  0  0
 22 58  1  0  0  0  0
 22 67  2  0  0  0  0
 23 60  2  0  0  0  0
 23 68  1  0  0  0  0
 24 56  1  0  0  0  0
 24152  1  0  0  0  0
 24153  1  0  0  0  0
 25 61  1  0  0  0  0
 25160  1  0  0  0  0
 25161  1  0  0  0  0
 26 73  1  0  0  0  0
 26 81  1  0  0  0  0
 26166  1  0  0  0  0
 27 74  1  0  0  0  0
 27167  1  0  0  0  0
 27168  1  0  0  0  0
 28 80  1  0  0  0  0
 28171  1  0  0  0  0
 28172  1  0  0  0  0
 29 82  1  0  0  0  0
 29174  1  0  0  0  0
 29175  1  0  0  0  0
 30 83  1  0  0  0  0
 30176  1  0  0  0  0
 30177  1  0  0  0  0
 89 31  1  6  0  0  0
 31 91  1  0  0  0  0
 31 92  1  0  0  0  0
 32 92  2  0  0  0  0
 32 93  1  0  0  0  0
101 33  1  1  0  0  0
 33104  1  0  0  0  0
 33106  1  0  0  0  0
 34106  2  0  0  0  0
 34107  1  0  0  0  0
 35104  2  0  0  0  0
 35109  1  0  0  0  0
 36108  1  0  0  0  0
 36109  2  0  0  0  0
 37108  1  0  0  0  0
 37208  1  0  0  0  0
 37209  1  0  0  0  0
 38 39  1  0  0  0  0
 38 40  1  0  0  0  0
 38 47  1  6  0  0  0
 39 42  1  0  0  0  0
 39 45  1  0  0  0  0
 39 48  1  6  0  0  0
 40 41  1  0  0  0  0
 40110  1  1  0  0  0
 41 43  1  0  0  0  0
 41 50  1  1  0  0  0
 41111  1  0  0  0  0
 42 44  1  0  0  0  0
 42 49  1  6  0  0  0
 42112  1  0  0  0  0
 43 46  1  0  0  0  0
 43 51  1  0  0  0  0
 43 52  1  1  0  0  0
 44 53  1  0  0  0  0
 45 56  1  0  0  0  0
 45113  1  0  0  0  0
 45114  1  0  0  0  0
 46 54  2  0  0  0  0
 47115  1  0  0  0  0
 47116  1  0  0  0  0
 47117  1  0  0  0  0
 48118  1  0  0  0  0
 48119  1  0  0  0  0
 48120  1  0  0  0  0
 49 55  1  0  0  0  0
 49121  1  0  0  0  0
 49122  1  0  0  0  0
 50 61  1  0  0  0  0
 50123  1  0  0  0  0
 50124  1  0  0  0  0
 51 57  1  0  0  0  0
 51125  1  0  0  0  0
 51126  1  0  0  0  0
 52127  1  0  0  0  0
 52128  1  0  0  0  0
 52129  1  0  0  0  0
 53 58  2  0  0  0  0
 53 65  1  0  0  0  0
 54 60  1  0  0  0  0
 54 66  1  0  0  0  0
 55 74  1  0  0  0  0
 55130  1  0  0  0  0
 55131  1  0  0  0  0
 57 73  1  0  0  0  0
 57132  1  0  0  0  0
 57133  1  0  0  0  0
 58 59  1  0  0  0  0
 59 63  1  0  0  0  0
 59 69  1  0  0  0  0
 59 70  1  6  0  0  0
 60 62  1  0  0  0  0
 62 64  1  0  0  0  0
 62 71  1  6  0  0  0
 62134  1  0  0  0  0
 63 67  1  0  0  0  0
 63 72  1  6  0  0  0
 63135  1  0  0  0  0
 64 68  1  0  0  0  0
 64 76  1  0  0  0  0
 64 77  1  0  0  0  0
 65136  1  0  0  0  0
 65137  1  0  0  0  0
 65138  1  0  0  0  0
 66139  1  0  0  0  0
 66140  1  0  0  0  0
 66141  1  0  0  0  0
 67 75  1  0  0  0  0
 68 75  2  0  0  0  0
 69 80  1  0  0  0  0
 69142  1  0  0  0  0
 69143  1  0  0  0  0
 70144  1  0  0  0  0
 70145  1  0  0  0  0
 70146  1  0  0  0  0
 71 78  1  0  0  0  0
 71147  1  0  0  0  0
 71148  1  0  0  0  0
 72 79  1  0  0  0  0
 72149  1  0  0  0  0
 72150  1  0  0  0  0
 75151  1  0  0  0  0
 76154  1  0  0  0  0
 76155  1  0  0  0  0
 76156  1  0  0  0  0
 77157  1  0  0  0  0
 77158  1  0  0  0  0
 77159  1  0  0  0  0
 78 82  1  0  0  0  0
 78162  1  0  0  0  0
 78163  1  0  0  0  0
 79 83  1  0  0  0  0
 79164  1  0  0  0  0
 79165  1  0  0  0  0
 81 84  1  0  0  0  0
 81169  1  0  0  0  0
 81170  1  0  0  0  0
 84 85  1  0  0  0  0
 84173  1  0  0  0  0
 85178  1  0  0  0  0
 85179  1  0  0  0  0
 85180  1  0  0  0  0
 86 87  1  0  0  0  0
 86 88  1  0  0  0  0
 86181  1  0  0  0  0
 87 89  1  0  0  0  0
 87182  1  0  0  0  0
 88 90  1  1  0  0  0
 88183  1  0  0  0  0
 89184  1  0  0  0  0
 90185  1  0  0  0  0
 90186  1  0  0  0  0
 91 93  2  0  0  0  0
 91 94  1  0  0  0  0
 92188  1  0  0  0  0
 93 95  1  0  0  0  0
 94 96  2  0  0  0  0
 94190  1  0  0  0  0
 95 97  2  0  0  0  0
 95191  1  0  0  0  0
 96 97  1  0  0  0  0
 96 98  1  0  0  0  0
 97 99  1  0  0  0  0
 98192  1  0  0  0  0
 98193  1  0  0  0  0
 98194  1  0  0  0  0
 99195  1  0  0  0  0
 99196  1  0  0  0  0
 99197  1  0  0  0  0
100101  1  0  0  0  0
100102  1  0  0  0  0
100198  1  0  0  0  0
101199  1  0  0  0  0
102103  1  0  0  0  0
102200  1  0  0  0  0
103105  1  1  0  0  0
103201  1  0  0  0  0
104107  1  0  0  0  0
105202  1  0  0  0  0
105203  1  0  0  0  0
106206  1  0  0  0  0
107108  2  0  0  0  0
109207  1  0  0  0  0
M  CHG  3  12  -1  21  -1 105  -1
M  END
> <PUBCHEM_COMPOUND_CID>
157787771

> <PUBCHEM_COMPOUND_CANONICALIZED>
1

> <PUBCHEM_CACTVS_COMPLEXITY>
3460

> <PUBCHEM_CACTVS_HBOND_ACCEPTOR>
27

> <PUBCHEM_CACTVS_HBOND_DONOR>
12

> <PUBCHEM_CACTVS_ROTATABLE_BOND>
27

> <PUBCHEM_CACTVS_SUBSKEYS>
AAADcfB//gIAAAAQAAAAAAAAAAAAAWLFiRI8QAAAAAAAAFgB/gAAHgAQCCAAD7zhnwY38L/MFxCoQydzdICCgC0xEqAB2KE4dJiLeLLA2dGeZAhvlgLbyCf8ucKfiAAAQAAQACAQAACAACAAQAAAAAAAAA==

> <PUBCHEM_IUPAC_OPENEYE_NAME>
(2R,3R,4S,5R)-2-(6-aminopurin-9-yl)-5-methanidyl-tetrahydrofuran-3,4-diol;cobalt;[(2R,3S,4R,5S)-5-(5,6-dimethylbenzimidazol-1-yl)-4-hydroxy-2-(hydroxymethyl)tetrahydrofuran-3-yl] [(1R)-1-methyl-2-[3-[(1R,2R,3R,4Z,7S,9Z,12S,13S,14Z,17S,18S,19R)-2,13,18-tris(2-amino-2-oxo-ethyl)-7,12,17-tris(3-amino-3-oxo-propyl)-3,5,8,8,13,15,18,19-octamethyl-2,7,12,17-tetrahydro-1H-corrin-21-id-3-yl]propanoylamino]ethyl] phosphate

> <PUBCHEM_IUPAC_CAS_NAME>
(2R,3R,4S,5R)-2-(6-aminopurin-9-yl)-5-methanidyloxolane-3,4-diol;cobalt;[(2R,3S,4R,5S)-5-(5,6-dimethyl-1-benzimidazolyl)-4-hydroxy-2-(hydroxymethyl)-3-oxolanyl] [(2R)-1-[[1-oxo-3-[(1R,2R,3R,4Z,7S,9Z,12S,13S,14Z,17S,18S,19R)-2,13,18-tris(2-amino-2-oxoethyl)-7,12,17-tris(3-amino-3-oxopropyl)-3,5,8,8,13,15,18,19-octamethyl-2,7,12,17-tetrahydro-1H-corrin-21-id-3-yl]propyl]amino]propan-2-yl] phosphate

> <PUBCHEM_IUPAC_NAME_MARKUP>
(2<I>R</I>,3<I>R</I>,4<I>S</I>,5<I>R</I>)-2-(6-aminopurin-9-yl)-5-methanidyloxolane-3,4-diol;cobalt;[(2<I>R</I>,3<I>S</I>,4<I>R</I>,5<I>S</I>)-5-(5,6-dimethylbenzimidazol-1-yl)-4-hydroxy-2-(hydroxymethyl)oxolan-3-yl] [(2<I>R</I>)-1-[3-[(1<I>R</I>,2<I>R</I>,3<I>R</I>,4<I>Z</I>,7<I>S</I>,9<I>Z</I>,12<I>S</I>,13<I>S</I>,14<I>Z</I>,17<I>S</I>,18<I>S</I>,19<I>R</I>)-2,13,18-tris(2-amino-2-oxoethyl)-7,12,17-tris(3-amino-3-oxopropyl)-3,5,8,8,13,15,18,19-octamethyl-2,7,12,17-tetrahydro-1<I>H</I>-corrin-21-id-3-yl]propanoylamino]propan-2-yl] phosphate

> <PUBCHEM_IUPAC_NAME>
(2R,3R,4S,5R)-2-(6-aminopurin-9-yl)-5-methanidyloxolane-3,4-diol;cobalt;[(2R,3S,4R,5S)-5-(5,6-dimethylbenzimidazol-1-yl)-4-hydroxy-2-(hydroxymethyl)oxolan-3-yl] [(2R)-1-[3-[(1R,2R,3R,4Z,7S,9Z,12S,13S,14Z,17S,18S,19R)-2,13,18-tris(2-amino-2-oxoethyl)-7,12,17-tris(3-amino-3-oxopropyl)-3,5,8,8,13,15,18,19-octamethyl-2,7,12,17-tetrahydro-1H-corrin-21-id-3-yl]propanoylamino]propan-2-yl] phosphate

> <PUBCHEM_IUPAC_SYSTEMATIC_NAME>
(2R,3R,4S,5R)-2-(6-aminopurin-9-yl)-5-methanidyl-oxolane-3,4-diol;cobalt;[(2R,3S,4R,5S)-5-(5,6-dimethylbenzimidazol-1-yl)-2-(hydroxymethyl)-4-oxidanyl-oxolan-3-yl] [(2R)-1-[3-[(1R,2R,3R,4Z,7S,9Z,12S,13S,14Z,17S,18S,19R)-2,13,18-tris(2-azanyl-2-oxidanylidene-ethyl)-7,12,17-tris(3-azanyl-3-oxidanylidene-propyl)-3,5,8,8,13,15,18,19-octamethyl-2,7,12,17-tetrahydro-1H-corrin-21-id-3-yl]propanoylamino]propan-2-yl] phosphate

> <PUBCHEM_IUPAC_TRADITIONAL_NAME>
(2R,3R,4S,5R)-2-adenin-9-yl-5-methanidyl-tetrahydrofuran-3,4-diol;cobalt;[(2R,3S,4R,5S)-5-(5,6-dimethylbenzimidazol-1-yl)-4-hydroxy-2-methylol-tetrahydrofuran-3-yl] [(1R)-1-methyl-2-[3-[(1R,2R,3R,4Z,7S,9Z,12S,13S,14Z,17S,18S,19R)-2,13,18-tris(2-amino-2-keto-ethyl)-7,12,17-tris(3-amino-3-keto-propyl)-3,5,8,8,13,15,18,19-octamethyl-2,7,12,17-tetrahydro-1H-corrin-21-id-3-yl]propanoylamino]ethyl] phosphate

> <PUBCHEM_IUPAC_INCHI>
InChI=1S/C62H90N13O14P.C10H12N5O3.Co/c1-29-20-39-40(21-30(29)2)75(28-70-39)57-52(84)53(41(27-76)87-57)89-90(85,86)88-31(3)26-69-49(83)18-19-59(8)37(22-46(66)80)56-62(11)61(10,25-48(68)82)36(14-17-45(65)79)51(74-62)33(5)55-60(9,24-47(67)81)34(12-15-43(63)77)38(71-55)23-42-58(6,7)35(13-16-44(64)78)50(72-42)32(4)54(59)73-56;1-4-6(16)7(17)10(18-4)15-3-14-5-8(11)12-2-13-9(5)15;/h20-21,23,28,31,34-37,41,52-53,56-57,76,84H,12-19,22,24-27H2,1-11H3,(H15,63,64,65,66,67,68,69,71,72,73,74,77,78,79,80,81,82,83,85,86);2-4,6-7,10,16-17H,1H2,(H2,11,12,13);/q;-1;/p-2/t31-,34-,35-,36-,37+,41-,52-,53-,56-,57+,59-,60+,61+,62+;4-,6-,7-,10-;/m11./s1

> <PUBCHEM_IUPAC_INCHIKEY>
DFDCDQDATCDZSO-OUCXYWSSSA-L

> <PUBCHEM_EXACT_MASS>
1578.658339

> <PUBCHEM_MOLECULAR_FORMULA>
C72H100CoN18O17P-3

> <PUBCHEM_MOLECULAR_WEIGHT>
1579.6

> <PUBCHEM_SMILES>
CC1=CC2=C(C=C1C)N(C=N2)[C@@H]3[C@@H]([C@@H]([C@H](O3)CO)OP(=O)([O-])O[C@H](C)CNC(=O)CC[C@@]\4([C@H]([C@@H]5[C@]6([C@@]([C@@H](C(=N6)/C(=C\7/[C@@]([C@@H](C(=N7)/C=C\8/C([C@@H](C(=N8)/C(=C4\[N-]5)/C)CCC(=O)N)(C)C)CCC(=O)N)(C)CC(=O)N)/C)CCC(=O)N)(C)CC(=O)N)C)CC(=O)N)C)O.[CH2-][C@@H]1[C@H]([C@H]([C@@H](O1)N2C=NC3=C(N=CN=C32)N)O)O.[Co]

> <PUBCHEM_CONNECTIVITY_SMILES>
CC1=CC2=C(C=C1C)N(C=N2)C3C(C(C(O3)CO)OP(=O)([O-])OC(C)CNC(=O)CCC4(C(C5C6(C(C(C(=N6)C(=C7C(C(C(=N7)C=C8C(C(C(=N8)C(=C4[N-]5)C)CCC(=O)N)(C)C)CCC(=O)N)(C)CC(=O)N)C)CCC(=O)N)(C)CC(=O)N)C)CC(=O)N)C)O.[CH2-]C1C(C(C(O1)N2C=NC3=C(N=CN=C32)N)O)O.[Co]

> <PUBCHEM_CACTVS_TPSA>
571

> <PUBCHEM_MONOISOTOPIC_WEIGHT>
1578.658339

> <PUBCHEM_TOTAL_CHARGE>
-3

> <PUBCHEM_HEAVY_ATOM_COUNT>
109

> <PUBCHEM_ATOM_DEF_STEREO_COUNT>
18

> <PUBCHEM_ATOM_UDEF_STEREO_COUNT>
0

> <PUBCHEM_BOND_DEF_STEREO_COUNT>
3

> <PUBCHEM_BOND_UDEF_STEREO_COUNT>
0

> <PUBCHEM_ISOTOPIC_ATOM_COUNT>
0

> <PUBCHEM_COMPONENT_COUNT>
3

> <PUBCHEM_CACTVS_TAUTO_COUNT>
-1

> <PUBCHEM_COORDINATE_TYPE>
1
5
255

> <PUBCHEM_BONDANNOTATIONS>
84  10  5
103  105  5
104  107  8
107  108  8
86  11  6
87  15  6
100  18  6
102  19  6
89  31  6
31  91  8
31  92  8
32  92  8
32  93  8
101  33  5
33  104  8
33  106  8
34  106  8
34  107  8
35  104  8
35  109  8
36  108  8
36  109  8
38  47  6
39  48  6
40  110  5
41  50  5
42  49  6
43  52  5
59  70  6
62  71  6
63  72  6
88  90  5
91  93  8
91  94  8
93  95  8
94  96  8
95  97  8
96  97  8

$$$$
