17396988
  -OEChem-04182609203D

 38 40  0     1  0  0  0  0  0999 V2000
   -1.6978    1.0893    1.2028 S   0  0  0  0  0  0  0  0  0  0  0  0
   -3.8412   -1.0771    1.5183 S   0  0  0  0  0  0  0  0  0  0  0  0
    0.4063    3.5640    0.3284 O   0  0  0  0  0  0  0  0  0  0  0  0
    1.3164    1.5109   -0.2804 N   0  0  0  0  0  0  0  0  0  0  0  0
   -3.1653   -0.0827   -0.7447 N   0  0  0  0  0  0  0  0  0  0  0  0
   -4.1487   -1.0155   -1.0247 N   0  0  0  0  0  0  0  0  0  0  0  0
    2.6956    1.9913   -0.2072 C   0  0  0  0  0  0  0  0  0  0  0  0
    3.5287    1.0940    0.6995 C   0  0  0  0  0  0  0  0  0  0  0  0
    1.1387    0.1278   -0.7460 C   0  0  0  0  0  0  0  0  0  0  0  0
    3.4140   -0.3499    0.2897 C   0  0  0  0  0  0  0  0  0  0  0  0
    2.2681   -0.8063   -0.3847 C   0  0  0  0  0  0  0  0  0  0  0  0
    0.2636    2.4029   -0.0621 C   0  0  0  0  0  0  0  0  0  0  0  0
   -1.1257    1.8753   -0.3242 C   0  0  2  0  0  0  0  0  0  0  0  0
    4.4295   -1.2556    0.6248 C   0  0  0  0  0  0  0  0  0  0  0  0
    2.1734   -2.1599   -0.7390 C   0  0  0  0  0  0  0  0  0  0  0  0
    4.3217   -2.5997    0.2700 C   0  0  0  0  0  0  0  0  0  0  0  0
    3.1959   -3.0511   -0.4141 C   0  0  0  0  0  0  0  0  0  0  0  0
   -2.0428    3.0092   -0.7294 C   0  0  0  0  0  0  0  0  0  0  0  0
   -2.9100   -0.0155    0.5445 C   0  0  0  0  0  0  0  0  0  0  0  0
   -4.5864   -1.6060    0.0666 C   0  0  0  0  0  0  0  0  0  0  0  0
   -5.6341   -2.6456    0.1117 C   0  0  0  0  0  0  0  0  0  0  0  0
    2.7328    3.0231    0.1566 H   0  0  0  0  0  0  0  0  0  0  0  0
    3.0923    1.9918   -1.2302 H   0  0  0  0  0  0  0  0  0  0  0  0
    3.1839    1.1856    1.7368 H   0  0  0  0  0  0  0  0  0  0  0  0
    4.5746    1.4195    0.6594 H   0  0  0  0  0  0  0  0  0  0  0  0
    1.0522    0.1763   -1.8382 H   0  0  0  0  0  0  0  0  0  0  0  0
    0.2185   -0.2990   -0.3448 H   0  0  0  0  0  0  0  0  0  0  0  0
   -1.0919    1.1739   -1.1621 H   0  0  0  0  0  0  0  0  0  0  0  0
    5.3115   -0.9172    1.1627 H   0  0  0  0  0  0  0  0  0  0  0  0
    1.2974   -2.5270   -1.2682 H   0  0  0  0  0  0  0  0  0  0  0  0
    5.1152   -3.2947    0.5287 H   0  0  0  0  0  0  0  0  0  0  0  0
    3.1117   -4.0979   -0.6910 H   0  0  0  0  0  0  0  0  0  0  0  0
   -2.1552    3.7621    0.0601 H   0  0  0  0  0  0  0  0  0  0  0  0
   -3.0436    2.6498   -0.9913 H   0  0  0  0  0  0  0  0  0  0  0  0
   -1.6466    3.5281   -1.6105 H   0  0  0  0  0  0  0  0  0  0  0  0
   -5.2454   -3.5772    0.5355 H   0  0  0  0  0  0  0  0  0  0  0  0
   -6.4880   -2.3172    0.7129 H   0  0  0  0  0  0  0  0  0  0  0  0
   -6.0009   -2.8654   -0.8962 H   0  0  0  0  0  0  0  0  0  0  0  0
  1 13  1  0  0  0  0
  1 19  1  0  0  0  0
  2 19  1  0  0  0  0
  2 20  1  0  0  0  0
  3 12  2  0  0  0  0
  4  7  1  0  0  0  0
  4  9  1  0  0  0  0
  4 12  1  0  0  0  0
  5  6  1  0  0  0  0
  5 19  2  0  0  0  0
  6 20  2  0  0  0  0
  7  8  1  0  0  0  0
  7 22  1  0  0  0  0
  7 23  1  0  0  0  0
  8 10  1  0  0  0  0
  8 24  1  0  0  0  0
  8 25  1  0  0  0  0
  9 11  1  0  0  0  0
  9 26  1  0  0  0  0
  9 27  1  0  0  0  0
 10 11  1  0  0  0  0
 10 14  2  0  0  0  0
 11 15  2  0  0  0  0
 12 13  1  0  0  0  0
 13 18  1  0  0  0  0
 13 28  1  0  0  0  0
 14 16  1  0  0  0  0
 14 29  1  0  0  0  0
 15 17  1  0  0  0  0
 15 30  1  0  0  0  0
 16 17  2  0  0  0  0
 16 31  1  0  0  0  0
 17 32  1  0  0  0  0
 18 33  1  0  0  0  0
 18 34  1  0  0  0  0
 18 35  1  0  0  0  0
 20 21  1  0  0  0  0
 21 36  1  0  0  0  0
 21 37  1  0  0  0  0
 21 38  1  0  0  0  0
M  END
> <PUBCHEM_COMPOUND_CID>
17396988

> <PUBCHEM_CONFORMER_RMSD>
0.8

> <PUBCHEM_CONFORMER_DIVERSEORDER>
1
117
29
140
66
81
52
100
13
37
105
118
141
156
53
15
159
30
72
110
31
82
154
45
28
61
59
10
142
112
150
137
135
50
42
62
75
36
125
155
27
14
152
43
97
149
116
90
26
19
91
85
115
60
89
78
133
54
95
35
22
41
145
57
34
132
21
94
130
80
4
99
147
47
32
33
111
17
131
18
25
114
101
49
127
70
106
107
103
87
5
73
55
122
24
44
39
64
124
92
120
58
48
153
8
20
76
121
134
65
138
148
144
7
74
79
102
108
23
38
98
146
77
151
109
157
2
123
68
128
6
40
129
11
119
136
86
143
84
3
158
9
93
63
113
88
56
16
96
139
46
67
12
83
126
71
104
69
51

> <PUBCHEM_MMFF94_PARTIAL_CHARGES>
24
1 -0.29
10 -0.14
11 -0.14
12 0.57
13 0.29
14 -0.15
15 -0.15
16 -0.15
17 -0.15
19 0.43
2 -0.08
20 0.2
21 0.18
29 0.15
3 -0.57
30 0.15
31 0.15
32 0.15
4 -0.66
5 -0.34
6 -0.34
7 0.3
8 0.14
9 0.44

> <PUBCHEM_EFFECTIVE_ROTOR_COUNT>
4.8

> <PUBCHEM_PHARMACOPHORE_FEATURES>
7
1 18 hydrophobe
1 3 acceptor
1 5 acceptor
1 6 acceptor
5 2 5 6 19 20 rings
6 10 11 14 15 16 17 rings
6 4 7 8 9 10 11 rings

> <PUBCHEM_HEAVY_ATOM_COUNT>
21

> <PUBCHEM_ATOM_DEF_STEREO_COUNT>
0

> <PUBCHEM_ATOM_UDEF_STEREO_COUNT>
1

> <PUBCHEM_BOND_DEF_STEREO_COUNT>
0

> <PUBCHEM_BOND_UDEF_STEREO_COUNT>
0

> <PUBCHEM_ISOTOPIC_ATOM_COUNT>
0

> <PUBCHEM_COMPONENT_COUNT>
1

> <PUBCHEM_CACTVS_TAUTO_COUNT>
1

> <PUBCHEM_CONFORMER_ID>
010974FC00000001

> <PUBCHEM_MMFF94_ENERGY>
42.8768

> <PUBCHEM_FEATURE_SELFOVERLAP>
37.038

> <PUBCHEM_SHAPE_FINGERPRINT>
10764073 3 11820672094681398396
11552529 35 17988079967841641027
12107183 9 18269852930364644665
12363563 72 18334868198790319387
12553582 1 18339660978613137399
12596599 1 17915478111305860995
12596602 18 16987727964121400787
13083527 12 18409726270804144488
13140716 1 18270122284025974896
13533116 47 18268435818727050811
13544653 18 18408045117198052021
13911987 19 17538869256786462061
14251705 54 18411419496782227100
14251731 5 18411421674277989479
14251740 57 17846230976489863999
14429115 67 18413395349616833339
14429380 30 18335986389447812778
1454969 45 18337391673109151244
14790565 3 17761213610963271516
14848160 33 18336267924484895891
14863182 85 18264776630754461724
14866123 147 18265333898851161873
15342168 16 9511191737562265075
15352361 1 18409729551900767227
17492 89 18410854322120668550
19141452 34 18196096538700001369
20645477 70 18117554248524978457
20681677 274 18267579109831515648
20775530 9 18412548673707250099
21285901 2 17750504247491204181
221490 88 18339078186327409948
23559900 14 18266168436408206832
3421961 26 18339360893859657153
345986 75 17845949514898422809
46194498 28 17387688543182225165
463206 1 18337392763545729859
5104073 3 18271522018093786696
5309563 4 18411138047755090407
56633871 153 18198357152129424003
59682541 52 18195504095976013151
6433294 58 17977389661552416307
7064713 232 17346607356863199555
9709674 26 18334296448338106265

> <PUBCHEM_SHAPE_MULTIPOLES>
419.06
10.47
4.07
1.06
6.63
1.03
-0.19
-10.59
-1.09
-0.45
0.42
0.6
-0.07
0.42

> <PUBCHEM_SHAPE_SELFOVERLAP>
861.927

> <PUBCHEM_SHAPE_VOLUME>
242.3

> <PUBCHEM_COORDINATE_TYPE>
2
5
10

$$$$
