161712915
  -OEChem-04182609182D

 43  0  0     0  0  0  0  0  0999 V2000
   10.0000    3.7500    0.0000 Y   0  0  0  0  0  0  0  0  0  0  0  0
   12.5000    3.7500    0.0000 Y   0  0  0  0  0  0  0  0  0  0  0  0
    2.5000    1.2500    0.0000 Y   0  0  0  0  0  0  0  0  0  0  0  0
    5.0000    1.2500    0.0000 Y   0  0  0  0  0  0  0  0  0  0  0  0
    7.5000    0.0000    0.0000 Y   0  0  0  0  0  0  0  0  0  0  0  0
   10.0000    1.2500    0.0000 Y   0  0  0  0  0  0  0  0  0  0  0  0
   12.5000    1.2500    0.0000 Y   0  0  0  0  0  0  0  0  0  0  0  0
    0.0000    3.7500    0.0000 Y   0  0  0  0  0  0  0  0  0  0  0  0
    2.5000    3.7500    0.0000 Y   0  0  0  0  0  0  0  0  0  0  0  0
    5.0000    3.7500    0.0000 Y   0  0  0  0  0  0  0  0  0  0  0  0
    7.5000    2.5000    0.0000 Y   0  0  0  0  0  0  0  0  0  0  0  0
    7.5000   17.5000    0.0000 Y   0  0  0  0  0  0  0  0  0  0  0  0
    0.0000    1.2500    0.0000 Y   0  0  0  0  0  0  0  0  0  0  0  0
    0.0000    6.2500    0.0000 Y   0  0  0  0  0  0  0  0  0  0  0  0
    2.5000    6.2500    0.0000 Y   0  0  0  0  0  0  0  0  0  0  0  0
    5.0000    6.2500    0.0000 Y   0  0  0  0  0  0  0  0  0  0  0  0
    7.5000    5.0000    0.0000 Y   0  0  0  0  0  0  0  0  0  0  0  0
   10.0000    6.2500    0.0000 Y   0  0  0  0  0  0  0  0  0  0  0  0
   12.5000    6.2500    0.0000 Y   0  0  0  0  0  0  0  0  0  0  0  0
    0.0000    8.7500    0.0000 Y   0  0  0  0  0  0  0  0  0  0  0  0
    2.5000    8.7500    0.0000 Y   0  0  0  0  0  0  0  0  0  0  0  0
    5.0000    8.7500    0.0000 Y   0  0  0  0  0  0  0  0  0  0  0  0
    7.5000    7.5000    0.0000 Y   0  0  0  0  0  0  0  0  0  0  0  0
   10.0000    8.7500    0.0000 Y   0  0  0  0  0  0  0  0  0  0  0  0
   12.5000    8.7500    0.0000 Y   0  0  0  0  0  0  0  0  0  0  0  0
    0.0000   11.2500    0.0000 Y   0  0  0  0  0  0  0  0  0  0  0  0
    2.5000   11.2500    0.0000 Y   0  0  0  0  0  0  0  0  0  0  0  0
    5.0000   11.2500    0.0000 Y   0  0  0  0  0  0  0  0  0  0  0  0
    7.5000   10.0000    0.0000 Y   0  0  0  0  0  0  0  0  0  0  0  0
   10.0000   11.2500    0.0000 Y   0  0  0  0  0  0  0  0  0  0  0  0
   12.5000   11.2500    0.0000 Y   0  0  0  0  0  0  0  0  0  0  0  0
    0.0000   13.7500    0.0000 Y   0  0  0  0  0  0  0  0  0  0  0  0
    2.5000   13.7500    0.0000 Y   0  0  0  0  0  0  0  0  0  0  0  0
    5.0000   13.7500    0.0000 Y   0  0  0  0  0  0  0  0  0  0  0  0
    7.5000   12.5000    0.0000 Y   0  0  0  0  0  0  0  0  0  0  0  0
   10.0000   13.7500    0.0000 Y   0  0  0  0  0  0  0  0  0  0  0  0
   12.5000   13.7500    0.0000 Y   0  0  0  0  0  0  0  0  0  0  0  0
    0.0000   16.2500    0.0000 Y   0  0  0  0  0  0  0  0  0  0  0  0
    2.5000   16.2500    0.0000 Y   0  0  0  0  0  0  0  0  0  0  0  0
    5.0000   16.2500    0.0000 Y   0  0  0  0  0  0  0  0  0  0  0  0
    7.5000   15.0000    0.0000 Y   0  0  0  0  0  0  0  0  0  0  0  0
   10.0000   16.2500    0.0000 Y   0  0  0  0  0  0  0  0  0  0  0  0
   12.5000   16.2500    0.0000 Y   0  0  0  0  0  0  0  0  0  0  0  0
M  END
> <PUBCHEM_COMPOUND_CID>
161712915

> <PUBCHEM_COMPOUND_CANONICALIZED>
1

> <PUBCHEM_CACTVS_COMPLEXITY>
0

> <PUBCHEM_CACTVS_HBOND_ACCEPTOR>
0

> <PUBCHEM_CACTVS_HBOND_DONOR>
0

> <PUBCHEM_CACTVS_ROTATABLE_BOND>
0

> <PUBCHEM_CACTVS_SUBSKEYS>
AAADcQAAAAAAAAAAAgAAAAAAAAAAAAAAAAAAAAAAAAAAAAAAAAAAAAAAAAAAAAAAAAAAAAAAAAAAAAAAAAAAAAAAAAAAAAAAAAAAAAAAAAAAAAAAAAAAAAAAAAAAAAAAAAAAAAAAAAAAAAAAAAAAAAAAAA==

> <PUBCHEM_IUPAC_OPENEYE_NAME>
yttrium

> <PUBCHEM_IUPAC_CAS_NAME>
yttrium

> <PUBCHEM_IUPAC_NAME_MARKUP>
yttrium

> <PUBCHEM_IUPAC_NAME>
yttrium

> <PUBCHEM_IUPAC_SYSTEMATIC_NAME>
yttrium

> <PUBCHEM_IUPAC_TRADITIONAL_NAME>
yttrium

> <PUBCHEM_IUPAC_INCHI>
InChI=1S/43Y

> <PUBCHEM_IUPAC_INCHIKEY>
XHNWPXNQNBLSAW-UHFFFAOYSA-N

> <PUBCHEM_EXACT_MASS>
3822.9510

> <PUBCHEM_MOLECULAR_FORMULA>
Y43

> <PUBCHEM_MOLECULAR_WEIGHT>
3822.9510

> <PUBCHEM_SMILES>
[Y].[Y].[Y].[Y].[Y].[Y].[Y].[Y].[Y].[Y].[Y].[Y].[Y].[Y].[Y].[Y].[Y].[Y].[Y].[Y].[Y].[Y].[Y].[Y].[Y].[Y].[Y].[Y].[Y].[Y].[Y].[Y].[Y].[Y].[Y].[Y].[Y].[Y].[Y].[Y].[Y].[Y].[Y]

> <PUBCHEM_CONNECTIVITY_SMILES>
[Y].[Y].[Y].[Y].[Y].[Y].[Y].[Y].[Y].[Y].[Y].[Y].[Y].[Y].[Y].[Y].[Y].[Y].[Y].[Y].[Y].[Y].[Y].[Y].[Y].[Y].[Y].[Y].[Y].[Y].[Y].[Y].[Y].[Y].[Y].[Y].[Y].[Y].[Y].[Y].[Y].[Y].[Y]

> <PUBCHEM_CACTVS_TPSA>
0

> <PUBCHEM_MONOISOTOPIC_WEIGHT>
3822.9510

> <PUBCHEM_TOTAL_CHARGE>
0

> <PUBCHEM_HEAVY_ATOM_COUNT>
43

> <PUBCHEM_ATOM_DEF_STEREO_COUNT>
0

> <PUBCHEM_ATOM_UDEF_STEREO_COUNT>
0

> <PUBCHEM_BOND_DEF_STEREO_COUNT>
0

> <PUBCHEM_BOND_UDEF_STEREO_COUNT>
0

> <PUBCHEM_ISOTOPIC_ATOM_COUNT>
0

> <PUBCHEM_COMPONENT_COUNT>
43

> <PUBCHEM_CACTVS_TAUTO_COUNT>
-1

> <PUBCHEM_COORDINATE_TYPE>
1
5
255

$$$$
