9962298
  -OEChem-04182609202D

 91 96  0     1  0  0  0  0  0999 V2000
    9.6070    0.0000    0.0000 Ca  0  2  0  0  0  0  0  0  0  0  0  0
    1.8110    7.0243    0.0000 O   0  0  0  0  0  0  0  0  0  0  0  0
    3.4290    5.8488    0.0000 O   0  0  0  0  0  0  0  0  0  0  0  0
    9.0476    8.2722    0.0000 O   0  0  0  0  0  0  0  0  0  0  0  0
   10.6656    7.0967    0.0000 O   0  0  0  0  0  0  0  0  0  0  0  0
    3.4290    7.0243    0.0000 O   0  0  0  0  0  0  0  0  0  0  0  0
    1.8110    5.8488    0.0000 O   0  0  0  0  0  0  0  0  0  0  0  0
   10.6656    8.2722    0.0000 O   0  0  0  0  0  0  0  0  0  0  0  0
    9.0476    7.0967    0.0000 O   0  0  0  0  0  0  0  0  0  0  0  0
    1.8153    8.9216    0.0000 O   0  0  0  0  0  0  0  0  0  0  0  0
    3.4247    3.9515    0.0000 O   0  0  0  0  0  0  0  0  0  0  0  0
    9.0519   10.1695    0.0000 O   0  0  0  0  0  0  0  0  0  0  0  0
   10.6613    5.1994    0.0000 O   0  0  0  0  0  0  0  0  0  0  0  0
    4.3753    9.2323    0.0000 O   0  0  0  0  0  0  0  0  0  0  0  0
    0.8647    3.6408    0.0000 O   0  0  0  0  0  0  0  0  0  0  0  0
   11.6119   10.4802    0.0000 O   0  0  0  0  0  0  0  0  0  0  0  0
    8.1014    4.8887    0.0000 O   0  0  0  0  0  0  0  0  0  0  0  0
    0.6200    8.8414    0.0000 O   0  0  0  0  0  0  0  0  0  0  0  0
    4.6200    4.0317    0.0000 O   0  0  0  0  0  0  0  0  0  0  0  0
    7.8566   10.0893    0.0000 O   0  0  0  0  0  0  0  0  0  0  0  0
   11.8566    5.2796    0.0000 O   0  0  0  0  0  0  0  0  0  0  0  0
    1.7540   11.0052    0.0000 O   0  0  0  0  0  0  0  0  0  0  0  0
    3.4860    1.8679    0.0000 O   0  0  0  0  0  0  0  0  0  0  0  0
    8.9906   12.2531    0.0000 O   0  0  0  0  0  0  0  0  0  0  0  0
   10.7226    3.1158    0.0000 O   0  0  0  0  0  0  0  0  0  0  0  0
    2.1200    7.9754    0.0000 C   0  0  2  0  0  0  0  0  0  0  0  0
    3.1200    4.8977    0.0000 C   0  0  2  0  0  0  0  0  0  0  0  0
    9.3566    9.2233    0.0000 C   0  0  2  0  0  0  0  0  0  0  0  0
   10.3566    6.1456    0.0000 C   0  0  2  0  0  0  0  0  0  0  0  0
    3.1200    7.9754    0.0000 C   0  0  2  0  0  0  0  0  0  0  0  0
    2.1200    4.8977    0.0000 C   0  0  2  0  0  0  0  0  0  0  0  0
   10.3566    9.2233    0.0000 C   0  0  2  0  0  0  0  0  0  0  0  0
    9.3566    6.1456    0.0000 C   0  0  2  0  0  0  0  0  0  0  0  0
    3.4247    8.9216    0.0000 C   0  0  1  0  0  0  0  0  0  0  0  0
    1.8153    3.9515    0.0000 C   0  0  1  0  0  0  0  0  0  0  0  0
   10.6613   10.1695    0.0000 C   0  0  1  0  0  0  0  0  0  0  0  0
    9.0519    5.1994    0.0000 C   0  0  1  0  0  0  0  0  0  0  0  0
    2.6200    9.5052    0.0000 C   0  0  1  0  0  0  0  0  0  0  0  0
    2.6200    3.3679    0.0000 C   0  0  1  0  0  0  0  0  0  0  0  0
    9.8566   10.7531    0.0000 C   0  0  1  0  0  0  0  0  0  0  0  0
    9.8566    4.6158    0.0000 C   0  0  1  0  0  0  0  0  0  0  0  0
    1.1200    7.9754    0.0000 C   0  0  0  0  0  0  0  0  0  0  0  0
    4.1200    4.8977    0.0000 C   0  0  0  0  0  0  0  0  0  0  0  0
    8.3566    9.2233    0.0000 C   0  0  0  0  0  0  0  0  0  0  0  0
   11.3566    6.1456    0.0000 C   0  0  0  0  0  0  0  0  0  0  0  0
    2.6200   10.5052    0.0000 C   0  0  0  0  0  0  0  0  0  0  0  0
    2.6200    2.3679    0.0000 C   0  0  0  0  0  0  0  0  0  0  0  0
    9.8566   11.7531    0.0000 C   0  0  0  0  0  0  0  0  0  0  0  0
    9.8566    3.6158    0.0000 C   0  0  0  0  0  0  0  0  0  0  0  0
    2.6200    6.4366    0.0000 B   0  5  0  0  0  0  0  0  0  0  0  0
    9.8566    7.6844    0.0000 B   0  5  0  0  0  0  0  0  0  0  0  0
    3.9700    7.9765    0.0000 H   0  0  0  0  0  0  0  0  0  0  0  0
    1.2700    4.8966    0.0000 H   0  0  0  0  0  0  0  0  0  0  0  0
   11.2066    9.2244    0.0000 H   0  0  0  0  0  0  0  0  0  0  0  0
    8.5066    6.1445    0.0000 H   0  0  0  0  0  0  0  0  0  0  0  0
    3.5209    9.5341    0.0000 H   0  0  0  0  0  0  0  0  0  0  0  0
    1.3759    4.3890    0.0000 H   0  0  0  0  0  0  0  0  0  0  0  0
   10.7575   10.7820    0.0000 H   0  0  0  0  0  0  0  0  0  0  0  0
    8.6125    5.6368    0.0000 H   0  0  0  0  0  0  0  0  0  0  0  0
    2.0677    9.7869    0.0000 H   0  0  0  0  0  0  0  0  0  0  0  0
    3.1723    3.0862    0.0000 H   0  0  0  0  0  0  0  0  0  0  0  0
    9.3043   11.0348    0.0000 H   0  0  0  0  0  0  0  0  0  0  0  0
   10.4089    4.3341    0.0000 H   0  0  0  0  0  0  0  0  0  0  0  0
    0.5374    7.7634    0.0000 H   0  0  0  0  0  0  0  0  0  0  0  0
    1.2277    7.3648    0.0000 H   0  0  0  0  0  0  0  0  0  0  0  0
    4.7026    5.1098    0.0000 H   0  0  0  0  0  0  0  0  0  0  0  0
    4.0123    5.5083    0.0000 H   0  0  0  0  0  0  0  0  0  0  0  0
    7.7740    9.0112    0.0000 H   0  0  0  0  0  0  0  0  0  0  0  0
    8.4643    8.6127    0.0000 H   0  0  0  0  0  0  0  0  0  0  0  0
   11.9392    6.3577    0.0000 H   0  0  0  0  0  0  0  0  0  0  0  0
   11.2490    6.7562    0.0000 H   0  0  0  0  0  0  0  0  0  0  0  0
    3.2306   10.3976    0.0000 H   0  0  0  0  0  0  0  0  0  0  0  0
    2.8321   11.0878    0.0000 H   0  0  0  0  0  0  0  0  0  0  0  0
    2.0094    2.4756    0.0000 H   0  0  0  0  0  0  0  0  0  0  0  0
    2.4080    1.7853    0.0000 H   0  0  0  0  0  0  0  0  0  0  0  0
   10.4672   11.6455    0.0000 H   0  0  0  0  0  0  0  0  0  0  0  0
   10.0687   12.3357    0.0000 H   0  0  0  0  0  0  0  0  0  0  0  0
    9.2460    3.7234    0.0000 H   0  0  0  0  0  0  0  0  0  0  0  0
    9.6446    3.0332    0.0000 H   0  0  0  0  0  0  0  0  0  0  0  0
    4.5031    9.8390    0.0000 H   0  0  0  0  0  0  0  0  0  0  0  0
    0.7369    3.0342    0.0000 H   0  0  0  0  0  0  0  0  0  0  0  0
   11.7397   11.0868    0.0000 H   0  0  0  0  0  0  0  0  0  0  0  0
    7.9735    4.2820    0.0000 H   0  0  0  0  0  0  0  0  0  0  0  0
    0.0000    8.8414    0.0000 H   0  0  0  0  0  0  0  0  0  0  0  0
    5.2400    4.0317    0.0000 H   0  0  0  0  0  0  0  0  0  0  0  0
    7.2366   10.0893    0.0000 H   0  0  0  0  0  0  0  0  0  0  0  0
   12.4766    5.2796    0.0000 H   0  0  0  0  0  0  0  0  0  0  0  0
    1.7540   11.6252    0.0000 H   0  0  0  0  0  0  0  0  0  0  0  0
    3.4860    1.2479    0.0000 H   0  0  0  0  0  0  0  0  0  0  0  0
    8.9906   12.8731    0.0000 H   0  0  0  0  0  0  0  0  0  0  0  0
   10.7226    2.4958    0.0000 H   0  0  0  0  0  0  0  0  0  0  0  0
  2 26  1  0  0  0  0
  2 50  1  0  0  0  0
  3 27  1  0  0  0  0
  3 50  1  0  0  0  0
  4 28  1  0  0  0  0
  4 51  1  0  0  0  0
  5 29  1  0  0  0  0
  5 51  1  0  0  0  0
  6 30  1  0  0  0  0
  6 50  1  0  0  0  0
  7 31  1  0  0  0  0
  7 50  1  0  0  0  0
  8 32  1  0  0  0  0
  8 51  1  0  0  0  0
  9 33  1  0  0  0  0
  9 51  1  0  0  0  0
 10 26  1  0  0  0  0
 10 38  1  0  0  0  0
 11 27  1  0  0  0  0
 11 39  1  0  0  0  0
 12 28  1  0  0  0  0
 12 40  1  0  0  0  0
 13 29  1  0  0  0  0
 13 41  1  0  0  0  0
 34 14  1  1  0  0  0
 14 80  1  0  0  0  0
 35 15  1  1  0  0  0
 15 81  1  0  0  0  0
 36 16  1  1  0  0  0
 16 82  1  0  0  0  0
 37 17  1  1  0  0  0
 17 83  1  0  0  0  0
 18 42  1  0  0  0  0
 18 84  1  0  0  0  0
 19 43  1  0  0  0  0
 19 85  1  0  0  0  0
 20 44  1  0  0  0  0
 20 86  1  0  0  0  0
 21 45  1  0  0  0  0
 21 87  1  0  0  0  0
 22 46  1  0  0  0  0
 22 88  1  0  0  0  0
 23 47  1  0  0  0  0
 23 89  1  0  0  0  0
 24 48  1  0  0  0  0
 24 90  1  0  0  0  0
 25 49  1  0  0  0  0
 25 91  1  0  0  0  0
 26 30  1  0  0  0  0
 26 42  1  1  0  0  0
 27 31  1  0  0  0  0
 27 43  1  1  0  0  0
 28 32  1  0  0  0  0
 28 44  1  1  0  0  0
 29 33  1  0  0  0  0
 29 45  1  1  0  0  0
 30 34  1  0  0  0  0
 30 52  1  1  0  0  0
 31 35  1  0  0  0  0
 31 53  1  1  0  0  0
 32 36  1  0  0  0  0
 32 54  1  1  0  0  0
 33 37  1  0  0  0  0
 33 55  1  1  0  0  0
 34 38  1  0  0  0  0
 34 56  1  0  0  0  0
 35 39  1  0  0  0  0
 35 57  1  0  0  0  0
 36 40  1  0  0  0  0
 36 58  1  0  0  0  0
 37 41  1  0  0  0  0
 37 59  1  0  0  0  0
 38 46  1  6  0  0  0
 38 60  1  0  0  0  0
 39 47  1  6  0  0  0
 39 61  1  0  0  0  0
 40 48  1  6  0  0  0
 40 62  1  0  0  0  0
 41 49  1  6  0  0  0
 41 63  1  0  0  0  0
 42 64  1  0  0  0  0
 42 65  1  0  0  0  0
 43 66  1  0  0  0  0
 43 67  1  0  0  0  0
 44 68  1  0  0  0  0
 44 69  1  0  0  0  0
 45 70  1  0  0  0  0
 45 71  1  0  0  0  0
 46 72  1  0  0  0  0
 46 73  1  0  0  0  0
 47 74  1  0  0  0  0
 47 75  1  0  0  0  0
 48 76  1  0  0  0  0
 48 77  1  0  0  0  0
 49 78  1  0  0  0  0
 49 79  1  0  0  0  0
M  CHG  3   1   2  50  -1  51  -1
M  END
> <PUBCHEM_COMPOUND_CID>
9962298

> <PUBCHEM_COMPOUND_CANONICALIZED>
1

> <PUBCHEM_CACTVS_COMPLEXITY>
490

> <PUBCHEM_CACTVS_HBOND_ACCEPTOR>
26

> <PUBCHEM_CACTVS_HBOND_DONOR>
12

> <PUBCHEM_CACTVS_ROTATABLE_BOND>
8

> <PUBCHEM_CACTVS_SUBSKEYS>
AAADcfN4PgAAAAgAAAAAAAAAAAAAASJEiRIAAAAAAAASJAAAAAAIGgAACAAACBSggAIACAAABgAAAAAAAAAAAAAAAAAAAAAAAAAREAIAAAACQAAFAAAHAAHAYAQAAAAAAAAAAAAAAAAAAAAAAAAAAAAAAA==

> <PUBCHEM_IUPAC_OPENEYE_NAME>
calcium bis((1S,1'S,5R,5'R,7R,7'R,8S,8'S)-5,5',7,7'-tetrakis(hydroxymethyl)-3,3'-spirobi[2,4,6-trioxa-3-boranuidabicyclo[3.3.0]octane]-8,8'-diol)

> <PUBCHEM_IUPAC_CAS_NAME>
calcium bis((1S,1'S,5R,5'R,7R,7'R,8S,8'S)-5,5',7,7'-tetrakis(hydroxymethyl)-3,3'-spirobi[2,4,6-trioxa-3-boranuidabicyclo[3.3.0]octane]-8,8'-diol)

> <PUBCHEM_IUPAC_NAME_MARKUP>
calcium bis((1<I>S</I>,1&apos;<I>S</I>,5<I>R</I>,5&apos;<I>R</I>,7<I>R</I>,7&apos;<I>R</I>,8<I>S</I>,8&apos;<I>S</I>)-5,5&apos;,7,7&apos;-tetrakis(hydroxymethyl)-3,3&apos;-spirobi[2,4,6-trioxa-3-boranuidabicyclo[3.3.0]octane]-8,8&apos;-diol)

> <PUBCHEM_IUPAC_NAME>
calcium bis((1S,1'S,5R,5'R,7R,7'R,8S,8'S)-5,5',7,7'-tetrakis(hydroxymethyl)-3,3'-spirobi[2,4,6-trioxa-3-boranuidabicyclo[3.3.0]octane]-8,8'-diol)

> <PUBCHEM_IUPAC_SYSTEMATIC_NAME>
calcium bis((1S,1'S,5R,5'R,7R,7'R,8S,8'S)-5,5',7,7'-tetrakis(hydroxymethyl)-3,3'-spirobi[2,4,6-trioxa-3-boranuidabicyclo[3.3.0]octane]-8,8'-diol)

> <PUBCHEM_IUPAC_TRADITIONAL_NAME>
calcium bis((1S,1'S,5R,5'R,7R,7'R,8S,8'S)-5,5',7,7'-tetramethylol-3,3'-spirobi[2,4,6-trioxa-3-boranuidabicyclo[3.3.0]octane]-8,8'-diol)

> <PUBCHEM_IUPAC_INCHI>
InChI=1S/2C12H20BO12.Ca/c2*14-1-5-7(18)9-11(3-16,20-5)24-13(22-9)23-10-8(19)6(2-15)21-12(10,4-17)25-13;/h2*5-10,14-19H,1-4H2;/q2*-1;+2/t2*5-,6-,7-,8-,9+,10+,11+,12+,13?;/m11./s1

> <PUBCHEM_IUPAC_INCHIKEY>
HRSMKOBEJUELDV-XBNRZDKMSA-N

> <PUBCHEM_EXACT_MASS>
774.1721533

> <PUBCHEM_MOLECULAR_FORMULA>
C24H40B2CaO24

> <PUBCHEM_MOLECULAR_WEIGHT>
774.3

> <PUBCHEM_SMILES>
[B-]12(O[C@H]3[C@@H]([C@H](O[C@]3(O1)CO)CO)O)O[C@H]4[C@@H]([C@H](O[C@]4(O2)CO)CO)O.[B-]12(O[C@H]3[C@@H]([C@H](O[C@]3(O1)CO)CO)O)O[C@H]4[C@@H]([C@H](O[C@]4(O2)CO)CO)O.[Ca+2]

> <PUBCHEM_CONNECTIVITY_SMILES>
[B-]12(OC3C(C(OC3(O1)CO)CO)O)OC4C(C(OC4(O2)CO)CO)O.[B-]12(OC3C(C(OC3(O1)CO)CO)O)OC4C(C(OC4(O2)CO)CO)O.[Ca+2]

> <PUBCHEM_CACTVS_TPSA>
354

> <PUBCHEM_MONOISOTOPIC_WEIGHT>
774.1721533

> <PUBCHEM_TOTAL_CHARGE>
0

> <PUBCHEM_HEAVY_ATOM_COUNT>
51

> <PUBCHEM_ATOM_DEF_STEREO_COUNT>
16

> <PUBCHEM_ATOM_UDEF_STEREO_COUNT>
0

> <PUBCHEM_BOND_DEF_STEREO_COUNT>
0

> <PUBCHEM_BOND_UDEF_STEREO_COUNT>
0

> <PUBCHEM_ISOTOPIC_ATOM_COUNT>
0

> <PUBCHEM_COMPONENT_COUNT>
3

> <PUBCHEM_CACTVS_TAUTO_COUNT>
-1

> <PUBCHEM_COORDINATE_TYPE>
1
5
255

> <PUBCHEM_BONDANNOTATIONS>
34  14  5
35  15  5
36  16  5
37  17  5
26  42  5
27  43  5
28  44  5
29  45  5
30  52  5
31  53  5
32  54  5
33  55  5
38  46  6
39  47  6
40  48  6
41  49  6

$$$$
