162762
  -OEChem-04172611482D

 40 38  0     1  0  0  0  0  0999 V2000
    4.8671    9.9300    0.0000 O   0  0  0  0  0  0  0  0  0  0  0  0
    4.0010   11.4300    0.0000 O   0  0  0  0  0  0  0  0  0  0  0  0
    3.1350    0.3100    0.0000 O   0  0  0  0  0  0  0  0  0  0  0  0
    2.2690    5.4300    0.0000 O   0  0  0  0  0  0  0  0  0  0  0  0
    4.8671    1.3100    0.0000 O   0  0  0  0  0  0  0  0  0  0  0  0
    0.5369    1.8100    0.0000 O   0  0  0  0  0  0  0  0  0  0  0  0
    4.0010    2.8100    0.0000 O   0  0  0  0  0  0  0  0  0  0  0  0
    1.4030    0.3100    0.0000 O   0  0  0  0  0  0  0  0  0  0  0  0
    2.2690   10.4300    0.0000 N   0  0  0  0  0  0  0  0  0  0  0  0
    1.4030    6.9300    0.0000 N   0  0  0  0  0  0  0  0  0  0  0  0
    0.5369    5.4300    0.0000 N   0  0  0  0  0  0  0  0  0  0  0  0
    3.1350    8.9300    0.0000 C   0  0  0  0  0  0  0  0  0  0  0  0
    2.2690    8.4300    0.0000 C   0  0  0  0  0  0  0  0  0  0  0  0
    3.1350    9.9300    0.0000 C   0  0  1  0  0  0  0  0  0  0  0  0
    2.2690    7.4300    0.0000 C   0  0  0  0  0  0  0  0  0  0  0  0
    4.0010   10.4300    0.0000 C   0  0  0  0  0  0  0  0  0  0  0  0
    1.4030    5.9300    0.0000 C   0  0  0  0  0  0  0  0  0  0  0  0
    3.1350    1.3100    0.0000 C   0  0  3  0  0  0  0  0  0  0  0  0
    2.2690    1.8100    0.0000 C   0  0  0  0  0  0  0  0  0  0  0  0
    4.0010    1.8100    0.0000 C   0  0  0  0  0  0  0  0  0  0  0  0
    1.4030    1.3100    0.0000 C   0  0  0  0  0  0  0  0  0  0  0  0
    3.3471    8.3474    0.0000 H   0  0  0  0  0  0  0  0  0  0  0  0
    3.7456    9.0377    0.0000 H   0  0  0  0  0  0  0  0  0  0  0  0
    2.0569    9.0126    0.0000 H   0  0  0  0  0  0  0  0  0  0  0  0
    1.6584    8.3223    0.0000 H   0  0  0  0  0  0  0  0  0  0  0  0
    2.5981    9.6200    0.0000 H   0  0  0  0  0  0  0  0  0  0  0  0
    2.4810    6.8474    0.0000 H   0  0  0  0  0  0  0  0  0  0  0  0
    2.8796    7.5377    0.0000 H   0  0  0  0  0  0  0  0  0  0  0  0
    1.7321   10.1200    0.0000 H   0  0  0  0  0  0  0  0  0  0  0  0
    2.2690   11.0500    0.0000 H   0  0  0  0  0  0  0  0  0  0  0  0
    0.8660    7.2400    0.0000 H   0  0  0  0  0  0  0  0  0  0  0  0
    3.6720    1.0000    0.0000 H   0  0  0  0  0  0  0  0  0  0  0  0
    2.6675    2.2850    0.0000 H   0  0  0  0  0  0  0  0  0  0  0  0
    1.8705    2.2850    0.0000 H   0  0  0  0  0  0  0  0  0  0  0  0
    5.4040   10.2400    0.0000 H   0  0  0  0  0  0  0  0  0  0  0  0
    0.5369    4.8100    0.0000 H   0  0  0  0  0  0  0  0  0  0  0  0
    0.0000    5.7400    0.0000 H   0  0  0  0  0  0  0  0  0  0  0  0
    2.5981    0.0000    0.0000 H   0  0  0  0  0  0  0  0  0  0  0  0
    5.4040    1.6200    0.0000 H   0  0  0  0  0  0  0  0  0  0  0  0
    0.0000    1.5000    0.0000 H   0  0  0  0  0  0  0  0  0  0  0  0
  1 16  1  0  0  0  0
  1 35  1  0  0  0  0
  2 16  2  0  0  0  0
  3 18  1  0  0  0  0
  3 38  1  0  0  0  0
  4 17  2  0  0  0  0
  5 20  1  0  0  0  0
  5 39  1  0  0  0  0
  6 21  1  0  0  0  0
  6 40  1  0  0  0  0
  7 20  2  0  0  0  0
  8 21  2  0  0  0  0
 14  9  1  6  0  0  0
  9 29  1  0  0  0  0
  9 30  1  0  0  0  0
 10 15  1  0  0  0  0
 10 17  1  0  0  0  0
 10 31  1  0  0  0  0
 11 17  1  0  0  0  0
 11 36  1  0  0  0  0
 11 37  1  0  0  0  0
 12 13  1  0  0  0  0
 12 14  1  0  0  0  0
 12 22  1  0  0  0  0
 12 23  1  0  0  0  0
 13 15  1  0  0  0  0
 13 24  1  0  0  0  0
 13 25  1  0  0  0  0
 14 16  1  0  0  0  0
 14 26  1  0  0  0  0
 15 27  1  0  0  0  0
 15 28  1  0  0  0  0
 18 19  1  0  0  0  0
 18 20  1  0  0  0  0
 18 32  1  0  0  0  0
 19 21  1  0  0  0  0
 19 33  1  0  0  0  0
 19 34  1  0  0  0  0
M  END
> <PUBCHEM_COMPOUND_CID>
162762

> <PUBCHEM_COMPOUND_CANONICALIZED>
1

> <PUBCHEM_CACTVS_COMPLEXITY>
300

> <PUBCHEM_CACTVS_HBOND_ACCEPTOR>
9

> <PUBCHEM_CACTVS_HBOND_DONOR>
7

> <PUBCHEM_CACTVS_ROTATABLE_BOND>
8

> <PUBCHEM_CACTVS_SUBSKEYS>
AAADceBzPAAAAAAAAAAAAAAAAAAAAAAAAAAAAAAAAAAAAAAAAAAAHgAQCAAACDzhgAYBCALAAgAIAACQGAIAAAAAAAAAAIHIAACDEBYAgAAEQAAFNgIBAADbEQIAAAAAAAAAAAAAAAAAAAAAAAAAAAAAAA==

> <PUBCHEM_IUPAC_OPENEYE_NAME>
(2S)-2-amino-5-ureido-pentanoic acid;2-hydroxybutanedioic acid

> <PUBCHEM_IUPAC_CAS_NAME>
(2S)-2-amino-5-(carbamoylamino)pentanoic acid;2-hydroxybutanedioic acid

> <PUBCHEM_IUPAC_NAME_MARKUP>
(2<I>S</I>)-2-amino-5-(carbamoylamino)pentanoic acid;2-hydroxybutanedioic acid

> <PUBCHEM_IUPAC_NAME>
(2S)-2-amino-5-(carbamoylamino)pentanoic acid;2-hydroxybutanedioic acid

> <PUBCHEM_IUPAC_SYSTEMATIC_NAME>
(2S)-5-(aminocarbonylamino)-2-azanyl-pentanoic acid;2-oxidanylbutanedioic acid

> <PUBCHEM_IUPAC_TRADITIONAL_NAME>
(2S)-2-amino-5-ureido-valeric acid;malic acid

> <PUBCHEM_IUPAC_INCHI>
InChI=1S/C6H13N3O3.C4H6O5/c7-4(5(10)11)2-1-3-9-6(8)12;5-2(4(8)9)1-3(6)7/h4H,1-3,7H2,(H,10,11)(H3,8,9,12);2,5H,1H2,(H,6,7)(H,8,9)/t4-;/m0./s1

> <PUBCHEM_IUPAC_INCHIKEY>
DROVUXYZTXCEBX-WCCKRBBISA-N

> <PUBCHEM_EXACT_MASS>
309.11721457

> <PUBCHEM_MOLECULAR_FORMULA>
C10H19N3O8

> <PUBCHEM_MOLECULAR_WEIGHT>
309.27

> <PUBCHEM_SMILES>
C(C[C@@H](C(=O)O)N)CNC(=O)N.C(C(C(=O)O)O)C(=O)O

> <PUBCHEM_CONNECTIVITY_SMILES>
C(CC(C(=O)O)N)CNC(=O)N.C(C(C(=O)O)O)C(=O)O

> <PUBCHEM_CACTVS_TPSA>
213

> <PUBCHEM_MONOISOTOPIC_WEIGHT>
309.11721457

> <PUBCHEM_TOTAL_CHARGE>
0

> <PUBCHEM_HEAVY_ATOM_COUNT>
21

> <PUBCHEM_ATOM_DEF_STEREO_COUNT>
1

> <PUBCHEM_ATOM_UDEF_STEREO_COUNT>
1

> <PUBCHEM_BOND_DEF_STEREO_COUNT>
0

> <PUBCHEM_BOND_UDEF_STEREO_COUNT>
0

> <PUBCHEM_ISOTOPIC_ATOM_COUNT>
0

> <PUBCHEM_COMPONENT_COUNT>
2

> <PUBCHEM_CACTVS_TAUTO_COUNT>
-1

> <PUBCHEM_COORDINATE_TYPE>
1
5
255

> <PUBCHEM_BONDANNOTATIONS>
18  3  3
14  9  6

$$$$
