10197817
  -OEChem-04182609203D

 24 23  0     0  0  0  0  0  0999 V2000
   -2.1179   -0.0072    0.4331 O   0  0  0  0  0  0  0  0  0  0  0  0
   -0.6587   -0.2064   -1.3425 O   0  0  0  0  0  0  0  0  0  0  0  0
    1.4641   -0.5016    0.3555 N   0  0  0  0  0  0  0  0  0  0  0  0
    3.5437    0.2367   -0.4842 N   0  0  0  0  0  0  0  0  0  0  0  0
    2.0348    1.8296    0.2418 N   0  0  0  0  0  0  0  0  0  0  0  0
    0.1407   -0.3174    0.9485 C   0  0  0  0  0  0  0  0  0  0  0  0
   -0.8895   -0.1754   -0.1413 C   0  0  0  0  0  0  0  0  0  0  0  0
    1.8641   -1.8858    0.1092 C   0  0  0  0  0  0  0  0  0  0  0  0
    2.3194    0.5664    0.0513 C   0  0  0  0  0  0  0  0  0  0  0  0
   -3.2101    0.1431   -0.4796 C   0  0  0  0  0  0  0  0  0  0  0  0
   -4.4907    0.3182    0.3084 C   0  0  0  0  0  0  0  0  0  0  0  0
   -0.1243   -1.1702    1.5832 H   0  0  0  0  0  0  0  0  0  0  0  0
    0.1237    0.5840    1.5707 H   0  0  0  0  0  0  0  0  0  0  0  0
    2.1017   -2.0374   -0.9491 H   0  0  0  0  0  0  0  0  0  0  0  0
    1.0644   -2.5926    0.3570 H   0  0  0  0  0  0  0  0  0  0  0  0
    2.7331   -2.1494    0.7209 H   0  0  0  0  0  0  0  0  0  0  0  0
   -3.0402    1.0227   -1.1104 H   0  0  0  0  0  0  0  0  0  0  0  0
   -3.2832   -0.7492   -1.1114 H   0  0  0  0  0  0  0  0  0  0  0  0
   -5.3482    0.4362   -0.3600 H   0  0  0  0  0  0  0  0  0  0  0  0
   -4.6647   -0.5460    0.9579 H   0  0  0  0  0  0  0  0  0  0  0  0
   -4.4258    1.1967    0.9588 H   0  0  0  0  0  0  0  0  0  0  0  0
    3.8411   -0.7178   -0.6454 H   0  0  0  0  0  0  0  0  0  0  0  0
    4.2129    0.9587   -0.7293 H   0  0  0  0  0  0  0  0  0  0  0  0
    2.8326    2.3968   -0.0647 H   0  0  0  0  0  0  0  0  0  0  0  0
  1  7  1  0  0  0  0
  1 10  1  0  0  0  0
  2  7  2  0  0  0  0
  3  6  1  0  0  0  0
  3  8  1  0  0  0  0
  3  9  1  0  0  0  0
  4  9  1  0  0  0  0
  4 22  1  0  0  0  0
  4 23  1  0  0  0  0
  5  9  2  0  0  0  0
  5 24  1  0  0  0  0
  6  7  1  0  0  0  0
  6 12  1  0  0  0  0
  6 13  1  0  0  0  0
  8 14  1  0  0  0  0
  8 15  1  0  0  0  0
  8 16  1  0  0  0  0
 10 11  1  0  0  0  0
 10 17  1  0  0  0  0
 10 18  1  0  0  0  0
 11 19  1  0  0  0  0
 11 20  1  0  0  0  0
 11 21  1  0  0  0  0
M  END
> <PUBCHEM_COMPOUND_CID>
10197817

> <PUBCHEM_CONFORMER_RMSD>
0.6

> <PUBCHEM_CONFORMER_DIVERSEORDER>
1
56
42
137
65
108
127
48
119
104
110
89
13
49
87
66
44
120
31
12
19
46
102
78
131
121
15
118
63
51
27
98
41
47
11
105
5
124
145
55
62
77
6
93
138
111
83
43
37
3
80
90
106
135
142
95
23
36
54
9
72
35
122
141
29
4
103
115
52
61
123
28
96
81
144
67
32
38
92
45
59
40
79
26
53
109
133
25
143
100
130
82
50
33
116
88
126
94
20
22
8
125
139
74
70
64
68
114
16
17
134
91
2
132
60
57
76
128
75
129
71
99
34
140
112
14
101
84
21
39
18
97
136
86
58
113
30
69
107
85
73
7
10
24
117

> <PUBCHEM_MMFF94_PARTIAL_CHARGES>
13
1 -0.43
10 0.28
2 -0.57
22 0.4
23 0.4
24 0.4
3 -0.79
4 -0.85
5 -0.85
6 0.43
7 0.66
8 0.37
9 0.55

> <PUBCHEM_EFFECTIVE_ROTOR_COUNT>
5

> <PUBCHEM_PHARMACOPHORE_FEATURES>
4
1 2 acceptor
1 4 donor
1 5 donor
4 3 4 5 9 cation

> <PUBCHEM_HEAVY_ATOM_COUNT>
11

> <PUBCHEM_ATOM_DEF_STEREO_COUNT>
0

> <PUBCHEM_ATOM_UDEF_STEREO_COUNT>
0

> <PUBCHEM_BOND_DEF_STEREO_COUNT>
0

> <PUBCHEM_BOND_UDEF_STEREO_COUNT>
0

> <PUBCHEM_ISOTOPIC_ATOM_COUNT>
0

> <PUBCHEM_COMPONENT_COUNT>
1

> <PUBCHEM_CACTVS_TAUTO_COUNT>
1

> <PUBCHEM_CONFORMER_ID>
009B9B3900000001

> <PUBCHEM_MMFF94_ENERGY>
20.1832

> <PUBCHEM_FEATURE_SELFOVERLAP>
20.346

> <PUBCHEM_SHAPE_FINGERPRINT>
10857977 72 16153425056409026701
11031198 65 18334300868154729558
11062470 55 12396298162391611093
12932764 1 17821999887986913483
14325111 11 18410008832444374419
170605 34 18186799196875847522
20233049 118 16917350307570034601
20645476 183 17846493764131960823
20645477 70 18337103450564888287
20711983 171 18059295345032398089
20871998 22 17982730771207017990
21119208 17 17846784013563215940
21293036 1 16128374895609328193
23235685 24 17822289123821763668
23402655 69 18412823556273021629
3248919 1 18340472414163316787
449060 50 18113623404182017349

> <PUBCHEM_SHAPE_MULTIPOLES>
199.69
6.54
1.29
0.88
5.7
0.1
-0.1
-1.17
-0.12
-1.36
0.1
0.14
0.04
-0.03

> <PUBCHEM_SHAPE_SELFOVERLAP>
374.265

> <PUBCHEM_SHAPE_VOLUME>
123.8

> <PUBCHEM_COORDINATE_TYPE>
2
5
10

$$$$
