73415774
  -OEChem-04182609212D

 57 54  0     1  0  0  0  0  0999 V2000
    1.4030    4.3100    0.0000 S   0  0  0  0  0  0  0  0  0  0  0  0
    7.9409    0.5000    0.0000 O   0  0  0  0  0  0  0  0  0  0  0  0
    7.9409    5.8100    0.0000 O   0  0  0  0  0  0  0  0  0  0  0  0
    8.8070    3.0000    0.0000 O   0  0  0  0  0  0  0  0  0  0  0  0
    8.8070    8.3100    0.0000 O   0  0  0  0  0  0  0  0  0  0  0  0
    7.0749    3.0000    0.0000 O   0  0  0  0  0  0  0  0  0  0  0  0
    7.0749    8.3100    0.0000 O   0  0  0  0  0  0  0  0  0  0  0  0
    5.3429    2.0000    0.0000 O   0  0  0  0  0  0  0  0  0  0  0  0
    5.3429    7.3100    0.0000 O   0  0  0  0  0  0  0  0  0  0  0  0
   10.5390    0.0000    0.0000 O   0  0  0  0  0  0  0  0  0  0  0  0
   10.5390    5.3100    0.0000 O   0  0  0  0  0  0  0  0  0  0  0  0
    2.2690    4.8100    0.0000 O   0  0  0  0  0  0  0  0  0  0  0  0
    0.5369    3.8100    0.0000 O   0  0  0  0  0  0  0  0  0  0  0  0
    0.9030    5.1760    0.0000 O   0  0  0  0  0  0  0  0  0  0  0  0
    1.9030    3.4440    0.0000 O   0  0  0  0  0  0  0  0  0  0  0  0
   10.5390    2.0000    0.0000 N   0  0  0  0  0  0  0  0  0  0  0  0
   10.5390    7.3100    0.0000 N   0  0  0  0  0  0  0  0  0  0  0  0
    7.9409    1.5000    0.0000 C   0  0  1  0  0  0  0  0  0  0  0  0
    7.9409    6.8100    0.0000 C   0  0  1  0  0  0  0  0  0  0  0  0
    8.8070    2.0000    0.0000 C   0  0  1  0  0  0  0  0  0  0  0  0
    8.8070    7.3100    0.0000 C   0  0  1  0  0  0  0  0  0  0  0  0
    7.0749    2.0000    0.0000 C   0  0  1  0  0  0  0  0  0  0  0  0
    7.0749    7.3100    0.0000 C   0  0  1  0  0  0  0  0  0  0  0  0
    9.6730    1.5000    0.0000 C   0  0  2  0  0  0  0  0  0  0  0  0
    9.6730    6.8100    0.0000 C   0  0  2  0  0  0  0  0  0  0  0  0
    6.2089    1.5000    0.0000 C   0  0  0  0  0  0  0  0  0  0  0  0
    6.2089    6.8100    0.0000 C   0  0  0  0  0  0  0  0  0  0  0  0
    9.6730    0.5000    0.0000 C   0  0  0  0  0  0  0  0  0  0  0  0
    9.6730    5.8100    0.0000 C   0  0  0  0  0  0  0  0  0  0  0  0
    7.4040    1.1900    0.0000 H   0  0  0  0  0  0  0  0  0  0  0  0
    8.4779    6.5000    0.0000 H   0  0  0  0  0  0  0  0  0  0  0  0
    9.3439    2.3100    0.0000 H   0  0  0  0  0  0  0  0  0  0  0  0
    9.3439    7.6200    0.0000 H   0  0  0  0  0  0  0  0  0  0  0  0
    7.6119    2.3100    0.0000 H   0  0  0  0  0  0  0  0  0  0  0  0
    7.6119    7.6200    0.0000 H   0  0  0  0  0  0  0  0  0  0  0  0
   10.2099    1.1900    0.0000 H   0  0  0  0  0  0  0  0  0  0  0  0
   10.2099    6.5000    0.0000 H   0  0  0  0  0  0  0  0  0  0  0  0
    5.8104    1.0251    0.0000 H   0  0  0  0  0  0  0  0  0  0  0  0
    6.6074    1.0251    0.0000 H   0  0  0  0  0  0  0  0  0  0  0  0
    5.8104    6.3351    0.0000 H   0  0  0  0  0  0  0  0  0  0  0  0
    6.6074    6.3351    0.0000 H   0  0  0  0  0  0  0  0  0  0  0  0
    7.4040    0.1900    0.0000 H   0  0  0  0  0  0  0  0  0  0  0  0
    7.4040    5.5000    0.0000 H   0  0  0  0  0  0  0  0  0  0  0  0
    9.3439    3.3100    0.0000 H   0  0  0  0  0  0  0  0  0  0  0  0
    9.3439    8.6200    0.0000 H   0  0  0  0  0  0  0  0  0  0  0  0
   11.0759    1.6900    0.0000 H   0  0  0  0  0  0  0  0  0  0  0  0
   10.5390    2.6200    0.0000 H   0  0  0  0  0  0  0  0  0  0  0  0
   11.0759    7.0000    0.0000 H   0  0  0  0  0  0  0  0  0  0  0  0
   10.5390    7.9300    0.0000 H   0  0  0  0  0  0  0  0  0  0  0  0
    9.1361    0.1900    0.0000 H   0  0  0  0  0  0  0  0  0  0  0  0
    9.1361    5.5000    0.0000 H   0  0  0  0  0  0  0  0  0  0  0  0
    6.5380    3.3100    0.0000 H   0  0  0  0  0  0  0  0  0  0  0  0
    6.5380    8.6200    0.0000 H   0  0  0  0  0  0  0  0  0  0  0  0
    4.8059    1.6900    0.0000 H   0  0  0  0  0  0  0  0  0  0  0  0
    4.8059    7.0000    0.0000 H   0  0  0  0  0  0  0  0  0  0  0  0
    2.8059    4.5000    0.0000 H   0  0  0  0  0  0  0  0  0  0  0  0
    0.0000    4.1200    0.0000 H   0  0  0  0  0  0  0  0  0  0  0  0
  1 12  1  0  0  0  0
  1 13  1  0  0  0  0
  1 14  2  0  0  0  0
  1 15  2  0  0  0  0
 18  2  1  6  0  0  0
  2 42  1  0  0  0  0
 19  3  1  6  0  0  0
  3 43  1  0  0  0  0
 20  4  1  6  0  0  0
  4 44  1  0  0  0  0
 21  5  1  6  0  0  0
  5 45  1  0  0  0  0
 22  6  1  1  0  0  0
  6 52  1  0  0  0  0
 23  7  1  1  0  0  0
  7 53  1  0  0  0  0
  8 26  1  0  0  0  0
  8 54  1  0  0  0  0
  9 27  1  0  0  0  0
  9 55  1  0  0  0  0
 10 28  2  0  0  0  0
 11 29  2  0  0  0  0
 12 56  1  0  0  0  0
 13 57  1  0  0  0  0
 24 16  1  1  0  0  0
 16 46  1  0  0  0  0
 16 47  1  0  0  0  0
 25 17  1  1  0  0  0
 17 48  1  0  0  0  0
 17 49  1  0  0  0  0
 18 20  1  0  0  0  0
 18 22  1  0  0  0  0
 18 30  1  0  0  0  0
 19 21  1  0  0  0  0
 19 23  1  0  0  0  0
 19 31  1  0  0  0  0
 20 24  1  0  0  0  0
 20 32  1  0  0  0  0
 21 25  1  0  0  0  0
 21 33  1  0  0  0  0
 22 26  1  0  0  0  0
 22 34  1  0  0  0  0
 23 27  1  0  0  0  0
 23 35  1  0  0  0  0
 24 28  1  0  0  0  0
 24 36  1  0  0  0  0
 25 29  1  0  0  0  0
 25 37  1  0  0  0  0
 26 38  1  0  0  0  0
 26 39  1  0  0  0  0
 27 40  1  0  0  0  0
 27 41  1  0  0  0  0
 28 50  1  0  0  0  0
 29 51  1  0  0  0  0
M  END
> <PUBCHEM_COMPOUND_CID>
73415774

> <PUBCHEM_COMPOUND_CANONICALIZED>
1

> <PUBCHEM_CACTVS_COMPLEXITY>
223

> <PUBCHEM_CACTVS_HBOND_ACCEPTOR>
16

> <PUBCHEM_CACTVS_HBOND_DONOR>
12

> <PUBCHEM_CACTVS_ROTATABLE_BOND>
10

> <PUBCHEM_CACTVS_SUBSKEYS>
AAADceBzPABAAAAAAAAAAAAAAAAAAAAAAAAAAAAAAAAAAAAAAAAAHgAQCAAACDzhgAYAAABAAoAIAAgQgDAAAAAAAAAAAIGAAAADEBYAgAAAQAAHMAABAAH6XAFAAAAAAAAAAAAAAAAAAAAAAAAAAAAAAA==

> <PUBCHEM_IUPAC_OPENEYE_NAME>
bis((2R,3R,4S,5R)-2-amino-3,4,5,6-tetrahydroxy-hexanal);sulfuric acid

> <PUBCHEM_IUPAC_CAS_NAME>
bis((2R,3R,4S,5R)-2-amino-3,4,5,6-tetrahydroxyhexanal);sulfuric acid

> <PUBCHEM_IUPAC_NAME_MARKUP>
bis((2<I>R</I>,3<I>R</I>,4<I>S</I>,5<I>R</I>)-2-amino-3,4,5,6-tetrahydroxyhexanal);sulfuric acid

> <PUBCHEM_IUPAC_NAME>
bis((2R,3R,4S,5R)-2-amino-3,4,5,6-tetrahydroxyhexanal);sulfuric acid

> <PUBCHEM_IUPAC_SYSTEMATIC_NAME>
bis((2R,3R,4S,5R)-2-azanyl-3,4,5,6-tetrakis(oxidanyl)hexanal);sulfuric acid

> <PUBCHEM_IUPAC_TRADITIONAL_NAME>
bis((2R,3R,4S,5R)-2-amino-3,4,5,6-tetrahydroxy-hexanal);sulfuric acid

> <PUBCHEM_IUPAC_INCHI>
InChI=1S/2C6H13NO5.H2O4S/c2*7-3(1-8)5(11)6(12)4(10)2-9;1-5(2,3)4/h2*1,3-6,9-12H,2,7H2;(H2,1,2,3,4)/t2*3-,4+,5+,6+;/m00./s1

> <PUBCHEM_IUPAC_INCHIKEY>
WLNBMPZUVDTASE-HXIISURNSA-N

> <PUBCHEM_EXACT_MASS>
456.12612474

> <PUBCHEM_MOLECULAR_FORMULA>
C12H28N2O14S

> <PUBCHEM_MOLECULAR_WEIGHT>
456.42

> <PUBCHEM_SMILES>
C([C@H]([C@H]([C@@H]([C@H](C=O)N)O)O)O)O.C([C@H]([C@H]([C@@H]([C@H](C=O)N)O)O)O)O.OS(=O)(=O)O

> <PUBCHEM_CONNECTIVITY_SMILES>
C(C(C(C(C(C=O)N)O)O)O)O.C(C(C(C(C(C=O)N)O)O)O)O.OS(=O)(=O)O

> <PUBCHEM_CACTVS_TPSA>
331

> <PUBCHEM_MONOISOTOPIC_WEIGHT>
456.12612474

> <PUBCHEM_TOTAL_CHARGE>
0

> <PUBCHEM_HEAVY_ATOM_COUNT>
29

> <PUBCHEM_ATOM_DEF_STEREO_COUNT>
8

> <PUBCHEM_ATOM_UDEF_STEREO_COUNT>
0

> <PUBCHEM_BOND_DEF_STEREO_COUNT>
0

> <PUBCHEM_BOND_UDEF_STEREO_COUNT>
0

> <PUBCHEM_ISOTOPIC_ATOM_COUNT>
0

> <PUBCHEM_COMPONENT_COUNT>
3

> <PUBCHEM_CACTVS_TAUTO_COUNT>
-1

> <PUBCHEM_COORDINATE_TYPE>
1
5
255

> <PUBCHEM_BONDANNOTATIONS>
24  16  5
25  17  5
18  2  6
19  3  6
20  4  6
21  5  6
22  6  5
23  7  5

$$$$
