23686432
  -OEChem-04172611482D

 15 14  0     0  0  0  0  0  0999 V2000
    7.1962   -1.0000    0.0000 O   0  0  0  0  0  0  0  0  0  0  0  0
    5.4641    2.0000    0.0000 O   0  0  0  0  0  0  0  0  0  0  0  0
    2.8660   -0.5000    0.0000 O   0  5  0  0  0  0  0  0  0  0  0  0
    3.7321   -2.0000    0.0000 O   0  0  0  0  0  0  0  0  0  0  0  0
    5.4641   -1.0000    0.0000 N   0  0  0  0  0  0  0  0  0  0  0  0
    6.3301    0.5000    0.0000 N   0  0  0  0  0  0  0  0  0  0  0  0
    4.5981   -0.5000    0.0000 C   0  0  0  0  0  0  0  0  0  0  0  0
    4.5981    0.5000    0.0000 C   0  0  0  0  0  0  0  0  0  0  0  0
    6.3301   -0.5000    0.0000 C   0  0  0  0  0  0  0  0  0  0  0  0
    5.4641    1.0000    0.0000 C   0  0  0  0  0  0  0  0  0  0  0  0
    3.7321   -1.0000    0.0000 C   0  0  0  0  0  0  0  0  0  0  0  0
    2.0000   -1.0000    0.0000 Li  0  3  0  0  0  0  0  0  0  0  0  0
    5.4641   -1.6200    0.0000 H   0  0  0  0  0  0  0  0  0  0  0  0
    4.0611    0.8100    0.0000 H   0  0  0  0  0  0  0  0  0  0  0  0
    6.8671    0.8100    0.0000 H   0  0  0  0  0  0  0  0  0  0  0  0
  1  9  2  0  0  0  0
  2 10  2  0  0  0  0
  3 11  1  0  0  0  0
  4 11  2  0  0  0  0
  5  7  1  0  0  0  0
  5  9  1  0  0  0  0
  5 13  1  0  0  0  0
  6  9  1  0  0  0  0
  6 10  1  0  0  0  0
  6 15  1  0  0  0  0
  7  8  2  0  0  0  0
  7 11  1  0  0  0  0
  8 10  1  0  0  0  0
  8 14  1  0  0  0  0
M  CHG  2   3  -1  12   1
M  END
> <PUBCHEM_COMPOUND_CID>
23686432

> <PUBCHEM_COMPOUND_CANONICALIZED>
1

> <PUBCHEM_CACTVS_COMPLEXITY>
273

> <PUBCHEM_CACTVS_HBOND_ACCEPTOR>
4

> <PUBCHEM_CACTVS_HBOND_DONOR>
2

> <PUBCHEM_CACTVS_ROTATABLE_BOND>
1

> <PUBCHEM_CACTVS_SUBSKEYS>
AAADcQhjOAAAAAAAAAAAAAAAAAAAAAAAAAAgAAAAAAAAAAAAAAAAHgAQAAAACAiBgAABCALAAACIACXSWACAAAAAAgAACACAAECCBAAAACAAEAAIFSIQAcAAAAAAAAAAAAAAAAAAAAAAAAAAAAAAAAAAAA==

> <PUBCHEM_IUPAC_OPENEYE_NAME>
lithium 2,4-dioxo-1H-pyrimidine-6-carboxylate

> <PUBCHEM_IUPAC_CAS_NAME>
lithium 2,4-dioxo-1H-pyrimidine-6-carboxylate

> <PUBCHEM_IUPAC_NAME_MARKUP>
lithium 2,4-dioxo-1<I>H</I>-pyrimidine-6-carboxylate

> <PUBCHEM_IUPAC_NAME>
lithium 2,4-dioxo-1H-pyrimidine-6-carboxylate

> <PUBCHEM_IUPAC_SYSTEMATIC_NAME>
lithium 2,4-bis(oxidanylidene)-1H-pyrimidine-6-carboxylate

> <PUBCHEM_IUPAC_TRADITIONAL_NAME>
lithium orotate

> <PUBCHEM_IUPAC_INCHI>
InChI=1S/C5H4N2O4.Li/c8-3-1-2(4(9)10)6-5(11)7-3;/h1H,(H,9,10)(H2,6,7,8,11);/q;+1/p-1

> <PUBCHEM_IUPAC_INCHIKEY>
IZJGDPULXXNWJP-UHFFFAOYSA-M

> <PUBCHEM_EXACT_MASS>
162.02528502

> <PUBCHEM_MOLECULAR_FORMULA>
C5H3LiN2O4

> <PUBCHEM_MOLECULAR_WEIGHT>
162.1

> <PUBCHEM_SMILES>
[Li+].C1=C(NC(=O)NC1=O)C(=O)[O-]

> <PUBCHEM_CONNECTIVITY_SMILES>
[Li+].C1=C(NC(=O)NC1=O)C(=O)[O-]

> <PUBCHEM_CACTVS_TPSA>
98.3

> <PUBCHEM_MONOISOTOPIC_WEIGHT>
162.02528502

> <PUBCHEM_TOTAL_CHARGE>
0

> <PUBCHEM_HEAVY_ATOM_COUNT>
12

> <PUBCHEM_ATOM_DEF_STEREO_COUNT>
0

> <PUBCHEM_ATOM_UDEF_STEREO_COUNT>
0

> <PUBCHEM_BOND_DEF_STEREO_COUNT>
0

> <PUBCHEM_BOND_UDEF_STEREO_COUNT>
0

> <PUBCHEM_ISOTOPIC_ATOM_COUNT>
0

> <PUBCHEM_COMPONENT_COUNT>
2

> <PUBCHEM_CACTVS_TAUTO_COUNT>
-1

> <PUBCHEM_NONSTANDARDBOND>
3  12  7

> <PUBCHEM_COORDINATE_TYPE>
1
5
255

> <PUBCHEM_BONDANNOTATIONS>
5  7  8
5  9  8
6  10  8
6  9  8
7  8  8
8  10  8

$$$$
