3036905
  -OEChem-04182609212D

 29 28  0     0  0  0  0  0  0999 V2000
    7.1962   -1.0000    0.0000 Mg  0  2  0  0  0  0  0  0  0  0  0  0
    2.0000   -1.0000    0.0000 O   0  0  0  0  0  0  0  0  0  0  0  0
   12.3923   -1.0000    0.0000 O   0  0  0  0  0  0  0  0  0  0  0  0
    3.7321    2.0000    0.0000 O   0  0  0  0  0  0  0  0  0  0  0  0
   10.6603    2.0000    0.0000 O   0  0  0  0  0  0  0  0  0  0  0  0
    6.3301   -0.5000    0.0000 O   0  5  0  0  0  0  0  0  0  0  0  0
    8.0622   -0.5000    0.0000 O   0  5  0  0  0  0  0  0  0  0  0  0
    5.4641   -2.0000    0.0000 O   0  0  0  0  0  0  0  0  0  0  0  0
    8.9282   -2.0000    0.0000 O   0  0  0  0  0  0  0  0  0  0  0  0
    3.7321   -1.0000    0.0000 N   0  0  0  0  0  0  0  0  0  0  0  0
   10.6603   -1.0000    0.0000 N   0  0  0  0  0  0  0  0  0  0  0  0
    2.8660    0.5000    0.0000 N   0  0  0  0  0  0  0  0  0  0  0  0
   11.5263    0.5000    0.0000 N   0  0  0  0  0  0  0  0  0  0  0  0
    4.5981   -0.5000    0.0000 C   0  0  0  0  0  0  0  0  0  0  0  0
    9.7942   -0.5000    0.0000 C   0  0  0  0  0  0  0  0  0  0  0  0
    4.5981    0.5000    0.0000 C   0  0  0  0  0  0  0  0  0  0  0  0
    9.7942    0.5000    0.0000 C   0  0  0  0  0  0  0  0  0  0  0  0
    2.8660   -0.5000    0.0000 C   0  0  0  0  0  0  0  0  0  0  0  0
   11.5263   -0.5000    0.0000 C   0  0  0  0  0  0  0  0  0  0  0  0
    3.7321    1.0000    0.0000 C   0  0  0  0  0  0  0  0  0  0  0  0
   10.6603    1.0000    0.0000 C   0  0  0  0  0  0  0  0  0  0  0  0
    5.4641   -1.0000    0.0000 C   0  0  0  0  0  0  0  0  0  0  0  0
    8.9282   -1.0000    0.0000 C   0  0  0  0  0  0  0  0  0  0  0  0
    3.7321   -1.6200    0.0000 H   0  0  0  0  0  0  0  0  0  0  0  0
   10.6603   -1.6200    0.0000 H   0  0  0  0  0  0  0  0  0  0  0  0
    5.1350    0.8100    0.0000 H   0  0  0  0  0  0  0  0  0  0  0  0
    9.2573    0.8100    0.0000 H   0  0  0  0  0  0  0  0  0  0  0  0
    2.3291    0.8100    0.0000 H   0  0  0  0  0  0  0  0  0  0  0  0
   12.0632    0.8100    0.0000 H   0  0  0  0  0  0  0  0  0  0  0  0
  2 18  2  0  0  0  0
  3 19  2  0  0  0  0
  4 20  2  0  0  0  0
  5 21  2  0  0  0  0
  6 22  1  0  0  0  0
  7 23  1  0  0  0  0
  8 22  2  0  0  0  0
  9 23  2  0  0  0  0
 10 14  1  0  0  0  0
 10 18  1  0  0  0  0
 10 24  1  0  0  0  0
 11 15  1  0  0  0  0
 11 19  1  0  0  0  0
 11 25  1  0  0  0  0
 12 18  1  0  0  0  0
 12 20  1  0  0  0  0
 12 28  1  0  0  0  0
 13 19  1  0  0  0  0
 13 21  1  0  0  0  0
 13 29  1  0  0  0  0
 14 16  2  0  0  0  0
 14 22  1  0  0  0  0
 15 17  2  0  0  0  0
 15 23  1  0  0  0  0
 16 20  1  0  0  0  0
 16 26  1  0  0  0  0
 17 21  1  0  0  0  0
 17 27  1  0  0  0  0
M  CHG  3   1   2   6  -1   7  -1
M  END
> <PUBCHEM_COMPOUND_CID>
3036905

> <PUBCHEM_COMPOUND_CANONICALIZED>
1

> <PUBCHEM_CACTVS_COMPLEXITY>
262

> <PUBCHEM_CACTVS_HBOND_ACCEPTOR>
8

> <PUBCHEM_CACTVS_HBOND_DONOR>
4

> <PUBCHEM_CACTVS_ROTATABLE_BOND>
0

> <PUBCHEM_CACTVS_SUBSKEYS>
AAADcYBzvAAAACAAAAAAAAAAAAAAAAAAAAAgQAAAAAAAAAAAAAAAHgAQAAAACAiBgAABCALAAACIACXSWACAAAAAAgAACACAAECCBAAAACAAEAAIFSIQAcAAAAAAAAAAAAAAAAAAAAAAAAAAAAAAAAAAAA==

> <PUBCHEM_IUPAC_OPENEYE_NAME>
magnesium bis(2,4-dioxo-1H-pyrimidine-6-carboxylate)

> <PUBCHEM_IUPAC_CAS_NAME>
magnesium bis(2,4-dioxo-1H-pyrimidine-6-carboxylate)

> <PUBCHEM_IUPAC_NAME_MARKUP>
magnesium bis(2,4-dioxo-1<I>H</I>-pyrimidine-6-carboxylate)

> <PUBCHEM_IUPAC_NAME>
magnesium bis(2,4-dioxo-1H-pyrimidine-6-carboxylate)

> <PUBCHEM_IUPAC_SYSTEMATIC_NAME>
magnesium bis(2,4-bis(oxidanylidene)-1H-pyrimidine-6-carboxylate)

> <PUBCHEM_IUPAC_TRADITIONAL_NAME>
magnesium orotate

> <PUBCHEM_IUPAC_INCHI>
InChI=1S/2C5H4N2O4.Mg/c2*8-3-1-2(4(9)10)6-5(11)7-3;/h2*1H,(H,9,10)(H2,6,7,8,11);/q;;+2/p-2

> <PUBCHEM_IUPAC_INCHIKEY>
QWLHYYKDLOVBNV-UHFFFAOYSA-L

> <PUBCHEM_EXACT_MASS>
334.0036049

> <PUBCHEM_MOLECULAR_FORMULA>
C10H6MgN4O8

> <PUBCHEM_MOLECULAR_WEIGHT>
334.48

> <PUBCHEM_SMILES>
C1=C(NC(=O)NC1=O)C(=O)[O-].C1=C(NC(=O)NC1=O)C(=O)[O-].[Mg+2]

> <PUBCHEM_CONNECTIVITY_SMILES>
C1=C(NC(=O)NC1=O)C(=O)[O-].C1=C(NC(=O)NC1=O)C(=O)[O-].[Mg+2]

> <PUBCHEM_CACTVS_TPSA>
197

> <PUBCHEM_MONOISOTOPIC_WEIGHT>
334.0036049

> <PUBCHEM_TOTAL_CHARGE>
0

> <PUBCHEM_HEAVY_ATOM_COUNT>
23

> <PUBCHEM_ATOM_DEF_STEREO_COUNT>
0

> <PUBCHEM_ATOM_UDEF_STEREO_COUNT>
0

> <PUBCHEM_BOND_DEF_STEREO_COUNT>
0

> <PUBCHEM_BOND_UDEF_STEREO_COUNT>
0

> <PUBCHEM_ISOTOPIC_ATOM_COUNT>
0

> <PUBCHEM_COMPONENT_COUNT>
3

> <PUBCHEM_CACTVS_TAUTO_COUNT>
-1

> <PUBCHEM_COORDINATE_TYPE>
1
5
255

> <PUBCHEM_BONDANNOTATIONS>
10  14  8
10  18  8
11  15  8
11  19  8
12  18  8
12  20  8
13  19  8
13  21  8
14  16  8
15  17  8
16  20  8
17  21  8

$$$$
