151440
  -OEChem-04182609212D

 19 16  0     0  0  0  0  0  0999 V2000
    6.0010    0.2500    0.0000 Mn  0  2  0  0  0  0  0  0  0  0  0  0
    6.8671    0.7500    0.0000 O   0  5  0  0  0  0  0  0  0  0  0  0
    5.1350    0.7500    0.0000 O   0  5  0  0  0  0  0  0  0  0  0  0
    7.7331   -0.7500    0.0000 O   0  0  0  0  0  0  0  0  0  0  0  0
    4.2690   -0.7500    0.0000 O   0  0  0  0  0  0  0  0  0  0  0  0
    9.4651    0.2500    0.0000 N   0  0  0  0  0  0  0  0  0  0  0  0
    2.5369    0.2500    0.0000 N   0  0  0  0  0  0  0  0  0  0  0  0
    8.5991    0.7500    0.0000 C   0  0  0  0  0  0  0  0  0  0  0  0
    3.4030    0.7500    0.0000 C   0  0  0  0  0  0  0  0  0  0  0  0
    7.7331    0.2500    0.0000 C   0  0  0  0  0  0  0  0  0  0  0  0
    4.2690    0.2500    0.0000 C   0  0  0  0  0  0  0  0  0  0  0  0
    8.9976    1.2250    0.0000 H   0  0  0  0  0  0  0  0  0  0  0  0
    8.2006    1.2250    0.0000 H   0  0  0  0  0  0  0  0  0  0  0  0
    3.8015    1.2250    0.0000 H   0  0  0  0  0  0  0  0  0  0  0  0
    3.0044    1.2250    0.0000 H   0  0  0  0  0  0  0  0  0  0  0  0
   10.0021    0.5600    0.0000 H   0  0  0  0  0  0  0  0  0  0  0  0
    9.4651   -0.3700    0.0000 H   0  0  0  0  0  0  0  0  0  0  0  0
    2.0000    0.5600    0.0000 H   0  0  0  0  0  0  0  0  0  0  0  0
    2.5369   -0.3700    0.0000 H   0  0  0  0  0  0  0  0  0  0  0  0
  2 10  1  0  0  0  0
  3 11  1  0  0  0  0
  4 10  2  0  0  0  0
  5 11  2  0  0  0  0
  6  8  1  0  0  0  0
  6 16  1  0  0  0  0
  6 17  1  0  0  0  0
  7  9  1  0  0  0  0
  7 18  1  0  0  0  0
  7 19  1  0  0  0  0
  8 10  1  0  0  0  0
  8 12  1  0  0  0  0
  8 13  1  0  0  0  0
  9 11  1  0  0  0  0
  9 14  1  0  0  0  0
  9 15  1  0  0  0  0
M  CHG  3   1   2   2  -1   3  -1
M  END
> <PUBCHEM_COMPOUND_CID>
151440

> <PUBCHEM_COMPOUND_CANONICALIZED>
1

> <PUBCHEM_CACTVS_COMPLEXITY>
37.4

> <PUBCHEM_CACTVS_HBOND_ACCEPTOR>
6

> <PUBCHEM_CACTVS_HBOND_DONOR>
2

> <PUBCHEM_CACTVS_ROTATABLE_BOND>
0

> <PUBCHEM_CACTVS_SUBSKEYS>
AAADccBjOAAAAABAAAAAAAAAAAAAAAAAAAAAAAAAAAAAAAAAAAAAHgAQAAAAAADBgAQACABAAAAIAACQCAAAAAAAAAAAAICAAAACAAAAAAAAAAAAAAAAAAAAAAAAAAAAAAAAAAAAAAAAAAAAAAAAAAAAAA==

> <PUBCHEM_IUPAC_OPENEYE_NAME>
manganous bis(2-aminoacetate)

> <PUBCHEM_IUPAC_CAS_NAME>
bis(2-aminoacetate);manganese(2+)

> <PUBCHEM_IUPAC_NAME_MARKUP>
bis(2-aminoacetate);manganese(2+)

> <PUBCHEM_IUPAC_NAME>
bis(2-aminoacetate);manganese(2+)

> <PUBCHEM_IUPAC_SYSTEMATIC_NAME>
bis(2-azanylethanoate);manganese(2+)

> <PUBCHEM_IUPAC_TRADITIONAL_NAME>
manganous bis(2-aminoacetate)

> <PUBCHEM_IUPAC_INCHI>
InChI=1S/2C2H5NO2.Mn/c2*3-1-2(4)5;/h2*1,3H2,(H,4,5);/q;;+2/p-2

> <PUBCHEM_IUPAC_INCHIKEY>
JNMKPXXKHWQWFB-UHFFFAOYSA-L

> <PUBCHEM_EXACT_MASS>
202.986450

> <PUBCHEM_MOLECULAR_FORMULA>
C4H8MnN2O4

> <PUBCHEM_MOLECULAR_WEIGHT>
203.06

> <PUBCHEM_SMILES>
C(C(=O)[O-])N.C(C(=O)[O-])N.[Mn+2]

> <PUBCHEM_CONNECTIVITY_SMILES>
C(C(=O)[O-])N.C(C(=O)[O-])N.[Mn+2]

> <PUBCHEM_CACTVS_TPSA>
132

> <PUBCHEM_MONOISOTOPIC_WEIGHT>
202.986450

> <PUBCHEM_TOTAL_CHARGE>
0

> <PUBCHEM_HEAVY_ATOM_COUNT>
11

> <PUBCHEM_ATOM_DEF_STEREO_COUNT>
0

> <PUBCHEM_ATOM_UDEF_STEREO_COUNT>
0

> <PUBCHEM_BOND_DEF_STEREO_COUNT>
0

> <PUBCHEM_BOND_UDEF_STEREO_COUNT>
0

> <PUBCHEM_ISOTOPIC_ATOM_COUNT>
0

> <PUBCHEM_COMPONENT_COUNT>
3

> <PUBCHEM_CACTVS_TAUTO_COUNT>
-1

> <PUBCHEM_COORDINATE_TYPE>
1
5
255

$$$$
