3086051
  -OEChem-04182609222D

138140  0     1  0  0  0  0  0999 V2000
    7.6846   -0.4320    0.0000 O   0  0  0  0  0  0  0  0  0  0  0  0
    6.9526   -1.1640    0.0000 O   0  0  0  0  0  0  0  0  0  0  0  0
    3.8545    1.2020    0.0000 O   0  0  0  0  0  0  0  0  0  0  0  0
    5.7205   -3.0301    0.0000 O   0  0  0  0  0  0  0  0  0  0  0  0
    8.1024   -4.5184    0.0000 O   0  0  0  0  0  0  0  0  0  0  0  0
    6.6761   -0.5642    0.0000 O   0  0  0  0  0  0  0  0  0  0  0  0
    8.5266    2.6417    0.0000 O   0  0  0  0  0  0  0  0  0  0  0  0
   11.5354   -0.8377    0.0000 O   0  0  0  0  0  0  0  0  0  0  0  0
    7.6759   -2.2962    0.0000 O   0  0  0  0  0  0  0  0  0  0  0  0
    4.7205    4.7020    0.0000 O   0  0  0  0  0  0  0  0  0  0  0  0
    7.3186    3.2020    0.0000 O   0  0  0  0  0  0  0  0  0  0  0  0
    6.6481    4.5804    0.0000 O   0  0  0  0  0  0  0  0  0  0  0  0
    7.8065    3.7693    0.0000 O   0  0  0  0  0  0  0  0  0  0  0  0
   11.6694    0.0096    0.0000 O   0  0  0  0  0  0  0  0  0  0  0  0
    2.5826   -3.7592    0.0000 O   0  0  0  0  0  0  0  0  0  0  0  0
    8.1846   -0.2980    0.0000 N   0  0  0  0  0  0  0  0  0  0  0  0
    5.5865    0.2020    0.0000 N   0  0  0  0  0  0  0  0  0  0  0  0
    7.4525   -3.0301    0.0000 N   0  0  0  0  0  0  0  0  0  0  0  0
    4.7205    2.7020    0.0000 N   0  0  0  0  0  0  0  0  0  0  0  0
    9.0506    1.2020    0.0000 N   0  0  0  0  0  0  0  0  0  0  0  0
    7.4525   -1.0301    0.0000 N   0  0  0  0  0  0  0  0  0  0  0  0
    6.4525    1.7020    0.0000 N   0  0  0  0  0  0  0  0  0  0  0  0
   10.0506   -1.5301    0.0000 N   0  0  0  0  0  0  0  0  0  0  0  0
    9.8243   -4.7056    0.0000 N   0  0  0  0  0  0  0  0  0  0  0  0
   11.0114    0.9493    0.0000 N   0  0  0  0  0  0  0  0  0  0  0  0
    7.3186    0.2020    0.0000 C   0  0  1  0  0  0  0  0  0  0  0  0
    7.4114    1.6969    0.0000 C   0  0  0  0  0  0  0  0  0  0  0  0
    8.8915    1.9264    0.0000 C   0  0  0  0  0  0  0  0  0  0  0  0
    9.4328    0.5298    0.0000 C   0  0  0  0  0  0  0  0  0  0  0  0
    8.1846   -1.2980    0.0000 C   0  0  0  0  0  0  0  0  0  0  0  0
    6.4525   -0.2980    0.0000 C   0  0  0  0  0  0  0  0  0  0  0  0
    8.3186   -2.5301    0.0000 C   0  0  1  0  0  0  0  0  0  0  0  0
    5.5865    1.2020    0.0000 C   0  0  1  0  0  0  0  0  0  0  0  0
    9.1255   -3.1208    0.0000 C   0  0  0  0  0  0  0  0  0  0  0  0
    6.2293    1.9680    0.0000 C   0  0  0  0  0  0  0  0  0  0  0  0
    4.7205    1.7020    0.0000 C   0  0  0  0  0  0  0  0  0  0  0  0
    9.0506    0.2020    0.0000 C   0  0  3  0  0  0  0  0  0  0  0  0
    6.5865   -2.5301    0.0000 C   0  0  0  0  0  0  0  0  0  0  0  0
    6.5865   -1.5301    0.0000 C   0  0  1  0  0  0  0  0  0  0  0  0
    9.4733   -0.7043    0.0000 C   0  0  0  0  0  0  0  0  0  0  0  0
   10.3796   -1.1269    0.0000 C   0  0  0  0  0  0  0  0  0  0  0  0
    9.0174   -4.1149    0.0000 C   0  0  0  0  0  0  0  0  0  0  0  0
    6.0557    2.9528    0.0000 C   0  0  0  0  0  0  0  0  0  0  0  0
   10.9531   -1.9460    0.0000 C   0  0  0  0  0  0  0  0  0  0  0  0
   10.0506    0.2020    0.0000 C   0  0  0  0  0  0  0  0  0  0  0  0
    5.6468   -1.1881    0.0000 C   0  0  0  0  0  0  0  0  0  0  0  0
    5.5865    3.2020    0.0000 C   0  0  1  0  0  0  0  0  0  0  0  0
   11.9493   -1.8589    0.0000 C   0  0  0  0  0  0  0  0  0  0  0  0
    7.3186    1.2020    0.0000 C   0  0  2  0  0  0  0  0  0  0  0  0
   12.5229   -2.6780    0.0000 C   0  0  0  0  0  0  0  0  0  0  0  0
    9.1846   -1.0301    0.0000 C   0  0  2  0  0  0  0  0  0  0  0  0
    8.1846    1.7020    0.0000 C   0  0  0  0  0  0  0  0  0  0  0  0
   10.5506   -0.6641    0.0000 C   0  0  0  0  0  0  0  0  0  0  0  0
    8.3186   -1.5301    0.0000 C   0  0  0  0  0  0  0  0  0  0  0  0
    6.4525    2.7020    0.0000 C   0  0  0  0  0  0  0  0  0  0  0  0
    6.6759    0.4359    0.0000 C   0  0  1  0  0  0  0  0  0  0  0  0
   12.1002   -3.5843    0.0000 C   0  0  0  0  0  0  0  0  0  0  0  0
    4.8808   -1.8308    0.0000 C   0  0  0  0  0  0  0  0  0  0  0  0
    5.5865    4.2020    0.0000 C   0  0  0  0  0  0  0  0  0  0  0  0
    6.8217    3.5956    0.0000 C   0  0  0  0  0  0  0  0  0  0  0  0
    9.6846   -0.1641    0.0000 C   0  0  0  0  0  0  0  0  0  0  0  0
   12.6738   -4.4035    0.0000 C   0  0  0  0  0  0  0  0  0  0  0  0
    5.5952    0.8289    0.0000 C   0  0  0  0  0  0  0  0  0  0  0  0
    3.9411   -1.4888    0.0000 C   0  0  0  0  0  0  0  0  0  0  0  0
    5.0544   -2.8156    0.0000 C   0  0  0  0  0  0  0  0  0  0  0  0
   10.6694    0.0096    0.0000 C   0  0  0  0  0  0  0  0  0  0  0  0
   12.2512   -5.3098    0.0000 C   0  0  0  0  0  0  0  0  0  0  0  0
    3.1750   -2.1315    0.0000 C   0  0  0  0  0  0  0  0  0  0  0  0
    4.2884   -3.4584    0.0000 C   0  0  0  0  0  0  0  0  0  0  0  0
    3.3487   -3.1164    0.0000 C   0  0  0  0  0  0  0  0  0  0  0  0
    6.5960    0.6496    0.0000 H   0  0  0  0  0  0  0  0  0  0  0  0
    7.3607    2.3148    0.0000 H   0  0  0  0  0  0  0  0  0  0  0  0
    6.7915    1.6907    0.0000 H   0  0  0  0  0  0  0  0  0  0  0  0
    9.4842    2.1083    0.0000 H   0  0  0  0  0  0  0  0  0  0  0  0
    8.7527    2.5307    0.0000 H   0  0  0  0  0  0  0  0  0  0  0  0
    9.7375   -0.0101    0.0000 H   0  0  0  0  0  0  0  0  0  0  0  0
    9.9933    0.7949    0.0000 H   0  0  0  0  0  0  0  0  0  0  0  0
    8.2850   -3.1492    0.0000 H   0  0  0  0  0  0  0  0  0  0  0  0
    5.0496   -0.1080    0.0000 H   0  0  0  0  0  0  0  0  0  0  0  0
    6.1691    0.9899    0.0000 H   0  0  0  0  0  0  0  0  0  0  0  0
    9.7208   -3.2938    0.0000 H   0  0  0  0  0  0  0  0  0  0  0  0
    9.3993   -2.5645    0.0000 H   0  0  0  0  0  0  0  0  0  0  0  0
    7.4525   -3.6501    0.0000 H   0  0  0  0  0  0  0  0  0  0  0  0
    6.5995    1.4707    0.0000 H   0  0  0  0  0  0  0  0  0  0  0  0
    6.7986    2.2136    0.0000 H   0  0  0  0  0  0  0  0  0  0  0  0
    8.4453    0.0677    0.0000 H   0  0  0  0  0  0  0  0  0  0  0  0
    6.5325   -0.9124    0.0000 H   0  0  0  0  0  0  0  0  0  0  0  0
    8.8599   -0.7942    0.0000 H   0  0  0  0  0  0  0  0  0  0  0  0
    9.3835   -1.3178    0.0000 H   0  0  0  0  0  0  0  0  0  0  0  0
   10.9785   -0.9665    0.0000 H   0  0  0  0  0  0  0  0  0  0  0  0
    9.9811   -1.6019    0.0000 H   0  0  0  0  0  0  0  0  0  0  0  0
    5.7457    3.4898    0.0000 H   0  0  0  0  0  0  0  0  0  0  0  0
    5.4730    2.7408    0.0000 H   0  0  0  0  0  0  0  0  0  0  0  0
   10.3912   -2.2080    0.0000 H   0  0  0  0  0  0  0  0  0  0  0  0
   11.1136   -2.5449    0.0000 H   0  0  0  0  0  0  0  0  0  0  0  0
   10.6332    0.4140    0.0000 H   0  0  0  0  0  0  0  0  0  0  0  0
    9.9430    0.8126    0.0000 H   0  0  0  0  0  0  0  0  0  0  0  0
    4.1836    3.0120    0.0000 H   0  0  0  0  0  0  0  0  0  0  0  0
    5.9568   -0.6511    0.0000 H   0  0  0  0  0  0  0  0  0  0  0  0
    5.1719   -0.7895    0.0000 H   0  0  0  0  0  0  0  0  0  0  0  0
   12.5112   -1.5969    0.0000 H   0  0  0  0  0  0  0  0  0  0  0  0
   11.7889   -1.2600    0.0000 H   0  0  0  0  0  0  0  0  0  0  0  0
    5.0496    3.5120    0.0000 H   0  0  0  0  0  0  0  0  0  0  0  0
    9.5876    1.5120    0.0000 H   0  0  0  0  0  0  0  0  0  0  0  0
    6.4815    1.0543    0.0000 H   0  0  0  0  0  0  0  0  0  0  0  0
    7.2405   -0.4475    0.0000 H   0  0  0  0  0  0  0  0  0  0  0  0
   13.0307   -3.0337    0.0000 H   0  0  0  0  0  0  0  0  0  0  0  0
   12.9613   -2.2396    0.0000 H   0  0  0  0  0  0  0  0  0  0  0  0
    9.7835   -0.8696    0.0000 H   0  0  0  0  0  0  0  0  0  0  0  0
    7.2585    0.2239    0.0000 H   0  0  0  0  0  0  0  0  0  0  0  0
    6.3449    1.0914    0.0000 H   0  0  0  0  0  0  0  0  0  0  0  0
   10.2111   -2.1290    0.0000 H   0  0  0  0  0  0  0  0  0  0  0  0
   11.5924   -3.2287    0.0000 H   0  0  0  0  0  0  0  0  0  0  0  0
   11.6618   -4.0227    0.0000 H   0  0  0  0  0  0  0  0  0  0  0  0
    6.1971    4.0943    0.0000 H   0  0  0  0  0  0  0  0  0  0  0  0
    5.7986    4.7846    0.0000 H   0  0  0  0  0  0  0  0  0  0  0  0
    9.7572   -5.3220    0.0000 H   0  0  0  0  0  0  0  0  0  0  0  0
   10.3916   -4.4555    0.0000 H   0  0  0  0  0  0  0  0  0  0  0  0
    9.7206    0.4549    0.0000 H   0  0  0  0  0  0  0  0  0  0  0  0
    9.0906    0.0138    0.0000 H   0  0  0  0  0  0  0  0  0  0  0  0
   13.1817   -4.7591    0.0000 H   0  0  0  0  0  0  0  0  0  0  0  0
   13.1122   -3.9651    0.0000 H   0  0  0  0  0  0  0  0  0  0  0  0
    5.8071    1.4116    0.0000 H   0  0  0  0  0  0  0  0  0  0  0  0
    5.0125    1.0408    0.0000 H   0  0  0  0  0  0  0  0  0  0  0  0
    5.3833    0.2462    0.0000 H   0  0  0  0  0  0  0  0  0  0  0  0
    3.8334   -0.8782    0.0000 H   0  0  0  0  0  0  0  0  0  0  0  0
    5.6370   -3.0277    0.0000 H   0  0  0  0  0  0  0  0  0  0  0  0
   11.6893   -5.0478    0.0000 H   0  0  0  0  0  0  0  0  0  0  0  0
   11.9891   -5.8717    0.0000 H   0  0  0  0  0  0  0  0  0  0  0  0
   12.8131   -5.5718    0.0000 H   0  0  0  0  0  0  0  0  0  0  0  0
    6.0935   -0.7764    0.0000 H   0  0  0  0  0  0  0  0  0  0  0  0
    4.7205    5.3220    0.0000 H   0  0  0  0  0  0  0  0  0  0  0  0
    7.1230    4.9789    0.0000 H   0  0  0  0  0  0  0  0  0  0  0  0
    2.5924   -1.9194    0.0000 H   0  0  0  0  0  0  0  0  0  0  0  0
    4.3960   -4.0690    0.0000 H   0  0  0  0  0  0  0  0  0  0  0  0
   10.6129    1.4242    0.0000 H   0  0  0  0  0  0  0  0  0  0  0  0
   11.6220    1.0570    0.0000 H   0  0  0  0  0  0  0  0  0  0  0  0
    2.0000   -3.5471    0.0000 H   0  0  0  0  0  0  0  0  0  0  0  0
  1 30  2  0  0  0  0
  2 31  2  0  0  0  0
  3 36  2  0  0  0  0
  4 38  2  0  0  0  0
  5 42  2  0  0  0  0
 56  6  1  6  0  0  0
  6131  1  0  0  0  0
  7 52  2  0  0  0  0
  8 53  2  0  0  0  0
  9 54  2  0  0  0  0
 10 59  1  0  0  0  0
 10132  1  0  0  0  0
 11 55  2  0  0  0  0
 12 60  1  0  0  0  0
 12133  1  0  0  0  0
 13 60  2  0  0  0  0
 14 66  2  0  0  0  0
 15 70  1  0  0  0  0
 15138  1  0  0  0  0
 16 26  1  0  0  0  0
 16 29  1  0  0  0  0
 16 30  1  0  0  0  0
 17 31  1  0  0  0  0
 17 33  1  0  0  0  0
 17 79  1  0  0  0  0
 18 32  1  0  0  0  0
 18 38  1  0  0  0  0
 18 83  1  0  0  0  0
 19 36  1  0  0  0  0
 19 47  1  0  0  0  0
 19 98  1  0  0  0  0
 20 37  1  0  0  0  0
 20 52  1  0  0  0  0
 20104  1  0  0  0  0
 21 39  1  0  0  0  0
 21 54  1  0  0  0  0
 21106  1  0  0  0  0
 22 49  1  0  0  0  0
 22 55  1  0  0  0  0
 22111  1  0  0  0  0
 23 51  1  0  0  0  0
 23 53  1  0  0  0  0
 23112  1  0  0  0  0
 24 42  1  0  0  0  0
 24117  1  0  0  0  0
 24118  1  0  0  0  0
 25 66  1  0  0  0  0
 25136  1  0  0  0  0
 25137  1  0  0  0  0
 26 27  1  0  0  0  0
 26 31  1  0  0  0  0
 26 71  1  1  0  0  0
 27 28  1  0  0  0  0
 27 72  1  0  0  0  0
 27 73  1  0  0  0  0
 28 29  1  0  0  0  0
 28 74  1  0  0  0  0
 28 75  1  0  0  0  0
 29 76  1  0  0  0  0
 29 77  1  0  0  0  0
 30 32  1  0  0  0  0
 32 34  1  1  0  0  0
 32 78  1  0  0  0  0
 33 35  1  6  0  0  0
 33 36  1  0  0  0  0
 33 80  1  0  0  0  0
 34 42  1  0  0  0  0
 34 81  1  0  0  0  0
 34 82  1  0  0  0  0
 35 43  1  0  0  0  0
 35 84  1  0  0  0  0
 35 85  1  0  0  0  0
 37 40  1  0  0  0  0
 37 45  1  0  0  0  0
 37 86  1  0  0  0  0
 38 39  1  0  0  0  0
 39 46  1  1  0  0  0
 39 87  1  0  0  0  0
 40 41  1  0  0  0  0
 40 88  1  0  0  0  0
 40 89  1  0  0  0  0
 41 44  1  0  0  0  0
 41 90  1  0  0  0  0
 41 91  1  0  0  0  0
 43 60  1  0  0  0  0
 43 92  1  0  0  0  0
 43 93  1  0  0  0  0
 44 48  1  0  0  0  0
 44 94  1  0  0  0  0
 44 95  1  0  0  0  0
 45 53  1  0  0  0  0
 45 96  1  0  0  0  0
 45 97  1  0  0  0  0
 46 58  1  0  0  0  0
 46 99  1  0  0  0  0
 46100  1  0  0  0  0
 47 55  1  0  0  0  0
 47 59  1  6  0  0  0
 47103  1  0  0  0  0
 48 50  1  0  0  0  0
 48101  1  0  0  0  0
 48102  1  0  0  0  0
 49 52  1  0  0  0  0
 49 56  1  0  0  0  0
 49105  1  1  0  0  0
 50 57  1  0  0  0  0
 50107  1  0  0  0  0
 50108  1  0  0  0  0
 51 54  1  0  0  0  0
 51 61  1  6  0  0  0
 51109  1  0  0  0  0
 56 63  1  0  0  0  0
 56110  1  0  0  0  0
 57 62  1  0  0  0  0
 57113  1  0  0  0  0
 57114  1  0  0  0  0
 58 64  2  0  0  0  0
 58 65  1  0  0  0  0
 59115  1  0  0  0  0
 59116  1  0  0  0  0
 61 66  1  0  0  0  0
 61119  1  0  0  0  0
 61120  1  0  0  0  0
 62 67  1  0  0  0  0
 62121  1  0  0  0  0
 62122  1  0  0  0  0
 63123  1  0  0  0  0
 63124  1  0  0  0  0
 63125  1  0  0  0  0
 64 68  1  0  0  0  0
 64126  1  0  0  0  0
 65 69  2  0  0  0  0
 65127  1  0  0  0  0
 67128  1  0  0  0  0
 67129  1  0  0  0  0
 67130  1  0  0  0  0
 68 70  2  0  0  0  0
 68134  1  0  0  0  0
 69 70  1  0  0  0  0
 69135  1  0  0  0  0
M  END
> <PUBCHEM_COMPOUND_CID>
3086051

> <PUBCHEM_COMPOUND_CANONICALIZED>
1

> <PUBCHEM_CACTVS_COMPLEXITY>
1860

> <PUBCHEM_CACTVS_HBOND_ACCEPTOR>
15

> <PUBCHEM_CACTVS_HBOND_DONOR>
13

> <PUBCHEM_CACTVS_ROTATABLE_BOND>
18

> <PUBCHEM_CACTVS_SUBSKEYS>
AAADcfB//AAAAAAAAAAAAAAAAAAAAWAAAAAwAAAAAAAAAAABAAAAHgAQCAAADDzhmAYyDoPAAgCIAiHSGAACAAAgIAAIiIGOCIgKdj6C0TOUcAAm9hGYmAe936KOIAAAAAAAAABAAAAAAAAAAAAAAAAAAA==

> <PUBCHEM_IUPAC_OPENEYE_NAME>
3-[(3R,6R,9S,16S,19R,22S,25S)-3,9-bis(2-amino-2-oxo-ethyl)-16-[(1R)-1-hydroxyethyl]-19-(hydroxymethyl)-6-[(4-hydroxyphenyl)methyl]-13-octyl-2,5,8,11,15,18,21,24-octaoxo-1,4,7,10,14,17,20,23-octazabicyclo[23.3.0]octacosan-22-yl]propanoic acid

> <PUBCHEM_IUPAC_CAS_NAME>
3-[(3R,6R,9S,16S,19R,22S,25S)-3,9-bis(2-amino-2-oxoethyl)-16-[(1R)-1-hydroxyethyl]-19-(hydroxymethyl)-6-[(4-hydroxyphenyl)methyl]-13-octyl-2,5,8,11,15,18,21,24-octaoxo-1,4,7,10,14,17,20,23-octazabicyclo[23.3.0]octacosan-22-yl]propanoic acid

> <PUBCHEM_IUPAC_NAME_MARKUP>
3-[(3<I>R</I>,6<I>R</I>,9<I>S</I>,16<I>S</I>,19<I>R</I>,22<I>S</I>,25<I>S</I>)-3,9-bis(2-amino-2-oxoethyl)-16-[(1<I>R</I>)-1-hydroxyethyl]-19-(hydroxymethyl)-6-[(4-hydroxyphenyl)methyl]-13-octyl-2,5,8,11,15,18,21,24-octaoxo-1,4,7,10,14,17,20,23-octazabicyclo[23.3.0]octacosan-22-yl]propanoic acid

> <PUBCHEM_IUPAC_NAME>
3-[(3R,6R,9S,16S,19R,22S,25S)-3,9-bis(2-amino-2-oxoethyl)-16-[(1R)-1-hydroxyethyl]-19-(hydroxymethyl)-6-[(4-hydroxyphenyl)methyl]-13-octyl-2,5,8,11,15,18,21,24-octaoxo-1,4,7,10,14,17,20,23-octazabicyclo[23.3.0]octacosan-22-yl]propanoic acid

> <PUBCHEM_IUPAC_SYSTEMATIC_NAME>
3-[(3R,6R,9S,16S,19R,22S,25S)-3,9-bis(2-azanyl-2-oxidanylidene-ethyl)-19-(hydroxymethyl)-6-[(4-hydroxyphenyl)methyl]-13-octyl-16-[(1R)-1-oxidanylethyl]-2,5,8,11,15,18,21,24-octakis(oxidanylidene)-1,4,7,10,14,17,20,23-octazabicyclo[23.3.0]octacosan-22-yl]propanoic acid

> <PUBCHEM_IUPAC_TRADITIONAL_NAME>
3-[(3R,6R,9S,16S,19R,22S,25S)-3,9-bis(2-amino-2-keto-ethyl)-6-(4-hydroxybenzyl)-16-[(1R)-1-hydroxyethyl]-2,5,8,11,15,18,21,24-octaketo-19-methylol-13-octyl-1,4,7,10,14,17,20,23-octazabicyclo[23.3.0]octacosan-22-yl]propionic acid

> <PUBCHEM_IUPAC_INCHI>
InChI=1S/C45H68N10O15/c1-3-4-5-6-7-8-10-26-20-36(61)49-30(21-34(46)59)41(66)51-29(19-25-12-14-27(58)15-13-25)40(65)52-31(22-35(47)60)45(70)55-18-9-11-33(55)43(68)50-28(16-17-37(62)63)39(64)53-32(23-56)42(67)54-38(24(2)57)44(69)48-26/h12-15,24,26,28-33,38,56-58H,3-11,16-23H2,1-2H3,(H2,46,59)(H2,47,60)(H,48,69)(H,49,61)(H,50,68)(H,51,66)(H,52,65)(H,53,64)(H,54,67)(H,62,63)/t24-,26?,28+,29-,30+,31-,32-,33+,38+/m1/s1

> <PUBCHEM_IUPAC_INCHIKEY>
VLKSXJAPRDAENT-OWGHDAAGSA-N

> <PUBCHEM_XLOGP3_AA>
-1.1

> <PUBCHEM_EXACT_MASS>
988.48656150

> <PUBCHEM_MOLECULAR_FORMULA>
C45H68N10O15

> <PUBCHEM_MOLECULAR_WEIGHT>
989.1

> <PUBCHEM_SMILES>
CCCCCCCCC1CC(=O)N[C@H](C(=O)N[C@@H](C(=O)N[C@@H](C(=O)N2CCC[C@H]2C(=O)N[C@H](C(=O)N[C@@H](C(=O)N[C@H](C(=O)N1)[C@@H](C)O)CO)CCC(=O)O)CC(=O)N)CC3=CC=C(C=C3)O)CC(=O)N

> <PUBCHEM_CONNECTIVITY_SMILES>
CCCCCCCCC1CC(=O)NC(C(=O)NC(C(=O)NC(C(=O)N2CCCC2C(=O)NC(C(=O)NC(C(=O)NC(C(=O)N1)C(C)O)CO)CCC(=O)O)CC(=O)N)CC3=CC=C(C=C3)O)CC(=O)N

> <PUBCHEM_CACTVS_TPSA>
408

> <PUBCHEM_MONOISOTOPIC_WEIGHT>
988.48656150

> <PUBCHEM_TOTAL_CHARGE>
0

> <PUBCHEM_HEAVY_ATOM_COUNT>
70

> <PUBCHEM_ATOM_DEF_STEREO_COUNT>
8

> <PUBCHEM_ATOM_UDEF_STEREO_COUNT>
1

> <PUBCHEM_BOND_DEF_STEREO_COUNT>
0

> <PUBCHEM_BOND_UDEF_STEREO_COUNT>
0

> <PUBCHEM_ISOTOPIC_ATOM_COUNT>
0

> <PUBCHEM_COMPONENT_COUNT>
1

> <PUBCHEM_CACTVS_TAUTO_COUNT>
-1

> <PUBCHEM_COORDINATE_TYPE>
1
5
255

> <PUBCHEM_BONDANNOTATIONS>
26  71  5
32  34  5
33  35  6
37  40  3
39  46  5
47  59  6
49  105  5
51  61  6
58  64  8
58  65  8
56  6  6
64  68  8
65  69  8
68  70  8
69  70  8

$$$$
