5284452
  -OEChem-04182609192D

 38 38  0     0  0  0  0  0  0999 V2000
    4.0683    2.8100    0.0000 O   0  0  0  0  0  0  0  0  0  0  0  0
    5.8003    4.8100    0.0000 O   0  0  0  0  0  0  0  0  0  0  0  0
    2.3199    5.8446    0.0000 O   0  0  0  0  0  0  0  0  0  0  0  0
    4.0683    5.8100    0.0000 O   0  0  0  0  0  0  0  0  0  0  0  0
    0.5381    2.7859    0.0000 O   0  0  0  0  0  0  0  0  0  0  0  0
    6.6663    0.3100    0.0000 O   0  0  0  0  0  0  0  0  0  0  0  0
    8.3984    1.3100    0.0000 O   0  0  0  0  0  0  0  0  0  0  0  0
    4.4677    8.1781    0.0000 O   0  0  0  0  0  0  0  0  0  0  0  0
    4.4677   10.6998    0.0000 O   0  0  0  0  0  0  0  0  0  0  0  0
    3.2022    4.3100    0.0000 C   0  0  0  0  0  0  0  0  0  0  0  0
    3.2022    3.3100    0.0000 C   0  0  0  0  0  0  0  0  0  0  0  0
    4.9343    3.3100    0.0000 C   0  0  0  0  0  0  0  0  0  0  0  0
    5.8003    2.8100    0.0000 C   0  0  0  0  0  0  0  0  0  0  0  0
    4.9343    4.3100    0.0000 C   0  0  0  0  0  0  0  0  0  0  0  0
    4.0683    4.8100    0.0000 C   0  0  0  0  0  0  0  0  0  0  0  0
    2.3083    4.8447    0.0000 C   0  0  0  0  0  0  0  0  0  0  0  0
    2.3083    2.7753    0.0000 C   0  0  0  0  0  0  0  0  0  0  0  0
    1.4022    3.2892    0.0000 C   0  0  0  0  0  0  0  0  0  0  0  0
    1.4022    4.3308    0.0000 C   0  0  0  0  0  0  0  0  0  0  0  0
    5.8003    1.8100    0.0000 C   0  0  0  0  0  0  0  0  0  0  0  0
    6.6663    3.3100    0.0000 C   0  0  0  0  0  0  0  0  0  0  0  0
    6.6663    1.3100    0.0000 C   0  0  0  0  0  0  0  0  0  0  0  0
    7.5324    2.8100    0.0000 C   0  0  0  0  0  0  0  0  0  0  0  0
    7.5324    1.8100    0.0000 C   0  0  0  0  0  0  0  0  0  0  0  0
    2.3155    2.1554    0.0000 H   0  0  0  0  0  0  0  0  0  0  0  0
    0.8665    4.6429    0.0000 H   0  0  0  0  0  0  0  0  0  0  0  0
    5.2634    1.5000    0.0000 H   0  0  0  0  0  0  0  0  0  0  0  0
    6.6663    3.9300    0.0000 H   0  0  0  0  0  0  0  0  0  0  0  0
    8.0693    3.1200    0.0000 H   0  0  0  0  0  0  0  0  0  0  0  0
    5.8003    5.4300    0.0000 H   0  0  0  0  0  0  0  0  0  0  0  0
    1.7865    6.1608    0.0000 H   0  0  0  0  0  0  0  0  0  0  0  0
    0.0000    3.0938    0.0000 H   0  0  0  0  0  0  0  0  0  0  0  0
    6.1294    0.0000    0.0000 H   0  0  0  0  0  0  0  0  0  0  0  0
    8.9353    1.6200    0.0000 H   0  0  0  0  0  0  0  0  0  0  0  0
    5.0046    8.4881    0.0000 H   0  0  0  0  0  0  0  0  0  0  0  0
    3.9307    8.4881    0.0000 H   0  0  0  0  0  0  0  0  0  0  0  0
    5.0046   11.0098    0.0000 H   0  0  0  0  0  0  0  0  0  0  0  0
    3.9307   11.0098    0.0000 H   0  0  0  0  0  0  0  0  0  0  0  0
  1 11  1  0  0  0  0
  1 12  1  0  0  0  0
  2 14  1  0  0  0  0
  2 30  1  0  0  0  0
  3 16  1  0  0  0  0
  3 31  1  0  0  0  0
  4 15  2  0  0  0  0
  5 18  1  0  0  0  0
  5 32  1  0  0  0  0
  6 22  1  0  0  0  0
  6 33  1  0  0  0  0
  7 24  1  0  0  0  0
  7 34  1  0  0  0  0
  8 35  1  0  0  0  0
  8 36  1  0  0  0  0
  9 37  1  0  0  0  0
  9 38  1  0  0  0  0
 10 11  1  0  0  0  0
 10 15  1  0  0  0  0
 10 16  2  0  0  0  0
 11 17  2  0  0  0  0
 12 13  1  0  0  0  0
 12 14  2  0  0  0  0
 13 20  2  0  0  0  0
 13 21  1  0  0  0  0
 14 15  1  0  0  0  0
 16 19  1  0  0  0  0
 17 18  1  0  0  0  0
 17 25  1  0  0  0  0
 18 19  2  0  0  0  0
 19 26  1  0  0  0  0
 20 22  1  0  0  0  0
 20 27  1  0  0  0  0
 21 23  2  0  0  0  0
 21 28  1  0  0  0  0
 22 24  2  0  0  0  0
 23 24  1  0  0  0  0
 23 29  1  0  0  0  0
M  END
> <PUBCHEM_COMPOUND_CID>
5284452

> <PUBCHEM_COMPOUND_CANONICALIZED>
1

> <PUBCHEM_CACTVS_COMPLEXITY>
488

> <PUBCHEM_CACTVS_HBOND_ACCEPTOR>
9

> <PUBCHEM_CACTVS_HBOND_DONOR>
7

> <PUBCHEM_CACTVS_ROTATABLE_BOND>
1

> <PUBCHEM_CACTVS_SUBSKEYS>
AAADccBwPAAAAAAAAAAAAAAAAAAAAAAAAAAwYIAAAAAAAACBQAAAGgAACAAADASAmAAwBoAABgCIAqBSAAICCAAkIAAIiAFGiMgNJzaGNRqCeWGl4BUJuQfI7LzOIAABCAAIQABAAAIQABCAAAAAAAAAAA==

> <PUBCHEM_IUPAC_OPENEYE_NAME>
2-(3,4-dihydroxyphenyl)-3,5,7-trihydroxy-chromen-4-one;dihydrate

> <PUBCHEM_IUPAC_CAS_NAME>
2-(3,4-dihydroxyphenyl)-3,5,7-trihydroxy-1-benzopyran-4-one;dihydrate

> <PUBCHEM_IUPAC_NAME_MARKUP>
2-(3,4-dihydroxyphenyl)-3,5,7-trihydroxychromen-4-one;dihydrate

> <PUBCHEM_IUPAC_NAME>
2-(3,4-dihydroxyphenyl)-3,5,7-trihydroxychromen-4-one;dihydrate

> <PUBCHEM_IUPAC_SYSTEMATIC_NAME>
2-[3,4-bis(oxidanyl)phenyl]-3,5,7-tris(oxidanyl)chromen-4-one;dihydrate

> <PUBCHEM_IUPAC_TRADITIONAL_NAME>
2-(3,4-dihydroxyphenyl)-3,5,7-trihydroxy-chromone;dihydrate

> <PUBCHEM_IUPAC_INCHI>
InChI=1S/C15H10O7.2H2O/c16-7-4-10(19)12-11(5-7)22-15(14(21)13(12)20)6-1-2-8(17)9(18)3-6;;/h1-5,16-19,21H;2*1H2

> <PUBCHEM_IUPAC_INCHIKEY>
GMGIWEZSKCNYSW-UHFFFAOYSA-N

> <PUBCHEM_EXACT_MASS>
338.06378202

> <PUBCHEM_MOLECULAR_FORMULA>
C15H14O9

> <PUBCHEM_MOLECULAR_WEIGHT>
338.27

> <PUBCHEM_SMILES>
C1=CC(=C(C=C1C2=C(C(=O)C3=C(C=C(C=C3O2)O)O)O)O)O.O.O

> <PUBCHEM_CONNECTIVITY_SMILES>
C1=CC(=C(C=C1C2=C(C(=O)C3=C(C=C(C=C3O2)O)O)O)O)O.O.O

> <PUBCHEM_CACTVS_TPSA>
129

> <PUBCHEM_MONOISOTOPIC_WEIGHT>
338.06378202

> <PUBCHEM_TOTAL_CHARGE>
0

> <PUBCHEM_HEAVY_ATOM_COUNT>
24

> <PUBCHEM_ATOM_DEF_STEREO_COUNT>
0

> <PUBCHEM_ATOM_UDEF_STEREO_COUNT>
0

> <PUBCHEM_BOND_DEF_STEREO_COUNT>
0

> <PUBCHEM_BOND_UDEF_STEREO_COUNT>
0

> <PUBCHEM_ISOTOPIC_ATOM_COUNT>
0

> <PUBCHEM_COMPONENT_COUNT>
3

> <PUBCHEM_CACTVS_TAUTO_COUNT>
-1

> <PUBCHEM_COORDINATE_TYPE>
1
5
255

> <PUBCHEM_BONDANNOTATIONS>
1  11  8
1  12  8
10  11  8
10  15  8
10  16  8
11  17  8
12  14  8
13  20  8
13  21  8
14  15  8
16  19  8
17  18  8
18  19  8
20  22  8
21  23  8
22  24  8
23  24  8

$$$$
