171666295
  -OEChem-04182609222D

102110  0     1  0  0  0  0  0999 V2000
    3.0494    5.5209    0.0000 O   0  0  0  0  0  0  0  0  0  0  0  0
    3.0494   15.3279    0.0000 O   0  0  0  0  0  0  0  0  0  0  0  0
    7.0312    5.5890    0.0000 O   0  0  0  0  0  0  0  0  0  0  0  0
    7.0312   15.3960    0.0000 O   0  0  0  0  0  0  0  0  0  0  0  0
    7.9353    4.0922    0.0000 O   0  0  0  0  0  0  0  0  0  0  0  0
    7.9353   13.8992    0.0000 O   0  0  0  0  0  0  0  0  0  0  0  0
    7.9511    2.0439    0.0000 O   0  0  0  0  0  0  0  0  0  0  0  0
    7.9511   11.8509    0.0000 O   0  0  0  0  0  0  0  0  0  0  0  0
    4.4331    4.0890    0.0000 N   0  0  3  0  0  0  0  0  0  0  0  0
    4.4331   13.8960    0.0000 N   0  0  3  0  0  0  0  0  0  0  0  0
    5.2991    3.5890    0.0000 N   0  0  0  0  0  0  0  0  0  0  0  0
    5.2991   13.3960    0.0000 N   0  0  0  0  0  0  0  0  0  0  0  0
    5.2991    5.5890    0.0000 N   0  0  0  0  0  0  0  0  0  0  0  0
    5.2991   15.3960    0.0000 N   0  0  0  0  0  0  0  0  0  0  0  0
    0.8678    3.3619    0.0000 N   0  0  0  0  0  0  0  0  0  0  0  0
    0.8678   13.1689    0.0000 N   0  0  0  0  0  0  0  0  0  0  0  0
    3.5671    3.5890    0.0000 C   0  0  3  0  0  0  0  0  0  0  0  0
    3.5671   13.3960    0.0000 C   0  0  3  0  0  0  0  0  0  0  0  0
    4.4331    5.0890    0.0000 C   0  0  0  0  0  0  0  0  0  0  0  0
    4.4331   14.8960    0.0000 C   0  0  0  0  0  0  0  0  0  0  0  0
    6.1651    4.0890    0.0000 C   0  0  0  0  0  0  0  0  0  0  0  0
    6.1651   13.8960    0.0000 C   0  0  0  0  0  0  0  0  0  0  0  0
    2.6011    3.8479    0.0000 C   0  0  0  0  0  0  0  0  0  0  0  0
    2.6011   13.6548    0.0000 C   0  0  0  0  0  0  0  0  0  0  0  0
    3.6976    2.5976    0.0000 C   0  0  0  0  0  0  0  0  0  0  0  0
    3.6976   12.4046    0.0000 C   0  0  0  0  0  0  0  0  0  0  0  0
    6.1651    5.0890    0.0000 C   0  0  0  0  0  0  0  0  0  0  0  0
    6.1651   14.8960    0.0000 C   0  0  0  0  0  0  0  0  0  0  0  0
    5.2991    6.5890    0.0000 C   0  0  0  0  0  0  0  0  0  0  0  0
    5.2991   16.3960    0.0000 C   0  0  0  0  0  0  0  0  0  0  0  0
    5.2831    2.5475    0.0000 C   0  0  0  0  0  0  0  0  0  0  0  0
    5.2831   12.3545    0.0000 C   0  0  0  0  0  0  0  0  0  0  0  0
    7.0751    3.5822    0.0000 C   0  0  0  0  0  0  0  0  0  0  0  0
    7.0751   13.3892    0.0000 C   0  0  0  0  0  0  0  0  0  0  0  0
    2.3423    4.8138    0.0000 C   0  0  0  0  0  0  0  0  0  0  0  0
    2.3423   14.6208    0.0000 C   0  0  0  0  0  0  0  0  0  0  0  0
    4.6215    2.2149    0.0000 C   0  0  0  0  0  0  0  0  0  0  0  0
    2.9042   11.7958    0.0000 C   0  0  0  0  0  0  0  0  0  0  0  0
    2.9042    1.9888    0.0000 C   0  0  0  0  0  0  0  0  0  0  0  0
    4.6215   12.0219    0.0000 C   0  0  0  0  0  0  0  0  0  0  0  0
    1.8760    3.1000    0.0000 C   0  0  0  0  0  0  0  0  0  0  0  0
    1.8760   12.9070    0.0000 C   0  0  0  0  0  0  0  0  0  0  0  0
    6.1811    2.0198    0.0000 C   0  0  0  0  0  0  0  0  0  0  0  0
    6.1811   11.8268    0.0000 C   0  0  0  0  0  0  0  0  0  0  0  0
    4.4977    7.1939    0.0000 C   0  0  0  0  0  0  0  0  0  0  0  0
    4.4977   17.0009    0.0000 C   0  0  0  0  0  0  0  0  0  0  0  0
    7.0832    2.5406    0.0000 C   0  0  0  0  0  0  0  0  0  0  0  0
    7.0832   12.3476    0.0000 C   0  0  0  0  0  0  0  0  0  0  0  0
    1.3405    5.0989    0.0000 C   0  0  0  0  0  0  0  0  0  0  0  0
    1.3405   14.9058    0.0000 C   0  0  0  0  0  0  0  0  0  0  0  0
    2.7906    6.4868    0.0000 C   0  0  0  0  0  0  0  0  0  0  0  0
    2.7906   16.2938    0.0000 C   0  0  0  0  0  0  0  0  0  0  0  0
    3.4977    7.1939    0.0000 C   0  0  0  0  0  0  0  0  0  0  0  0
    3.4977   17.0009    0.0000 C   0  0  0  0  0  0  0  0  0  0  0  0
    4.7520    1.2235    0.0000 C   0  0  0  0  0  0  0  0  0  0  0  0
    3.0348   10.8044    0.0000 C   0  0  0  0  0  0  0  0  0  0  0  0
    3.0348    0.9974    0.0000 C   0  0  0  0  0  0  0  0  0  0  0  0
    4.7520   11.0305    0.0000 C   0  0  0  0  0  0  0  0  0  0  0  0
    3.9586    0.6147    0.0000 C   0  0  0  0  0  0  0  0  0  0  0  0
    3.9586   10.4217    0.0000 C   0  0  0  0  0  0  0  0  0  0  0  0
    0.5983    4.3680    0.0000 C   0  0  0  0  0  0  0  0  0  0  0  0
    0.5983   14.1750    0.0000 C   0  0  0  0  0  0  0  0  0  0  0  0
    4.1231    3.3148    0.0000 H   0  0  0  0  0  0  0  0  0  0  0  0
    3.1009   12.9872    0.0000 H   0  0  0  0  0  0  0  0  0  0  0  0
    4.2210    5.6716    0.0000 H   0  0  0  0  0  0  0  0  0  0  0  0
    3.8225    4.9814    0.0000 H   0  0  0  0  0  0  0  0  0  0  0  0
    4.2210   15.4786    0.0000 H   0  0  0  0  0  0  0  0  0  0  0  0
    3.8225   14.7884    0.0000 H   0  0  0  0  0  0  0  0  0  0  0  0
    5.9048    6.4564    0.0000 H   0  0  0  0  0  0  0  0  0  0  0  0
    5.5582    7.1523    0.0000 H   0  0  0  0  0  0  0  0  0  0  0  0
    5.9048   16.2634    0.0000 H   0  0  0  0  0  0  0  0  0  0  0  0
    5.5582   16.9593    0.0000 H   0  0  0  0  0  0  0  0  0  0  0  0
    4.7426    2.2438    0.0000 H   0  0  0  0  0  0  0  0  0  0  0  0
    4.7426   12.0508    0.0000 H   0  0  0  0  0  0  0  0  0  0  0  0
    5.1133    2.5923    0.0000 H   0  0  0  0  0  0  0  0  0  0  0  0
    2.3314   12.0331    0.0000 H   0  0  0  0  0  0  0  0  0  0  0  0
    2.3314    2.2261    0.0000 H   0  0  0  0  0  0  0  0  0  0  0  0
    5.1133   12.3993    0.0000 H   0  0  0  0  0  0  0  0  0  0  0  0
    2.0434    2.5031    0.0000 H   0  0  0  0  0  0  0  0  0  0  0  0
    2.0434   12.3101    0.0000 H   0  0  0  0  0  0  0  0  0  0  0  0
    6.1787    1.3998    0.0000 H   0  0  0  0  0  0  0  0  0  0  0  0
    6.1787   11.2068    0.0000 H   0  0  0  0  0  0  0  0  0  0  0  0
    4.6911    7.7830    0.0000 H   0  0  0  0  0  0  0  0  0  0  0  0
    4.6911   17.5900    0.0000 H   0  0  0  0  0  0  0  0  0  0  0  0
    1.1869    5.6995    0.0000 H   0  0  0  0  0  0  0  0  0  0  0  0
    1.1869   15.5065    0.0000 H   0  0  0  0  0  0  0  0  0  0  0  0
    2.4350    6.9947    0.0000 H   0  0  0  0  0  0  0  0  0  0  0  0
    2.2287    6.2248    0.0000 H   0  0  0  0  0  0  0  0  0  0  0  0
    2.4350   16.8017    0.0000 H   0  0  0  0  0  0  0  0  0  0  0  0
    2.2287   16.0318    0.0000 H   0  0  0  0  0  0  0  0  0  0  0  0
    3.2604    7.7667    0.0000 H   0  0  0  0  0  0  0  0  0  0  0  0
    3.2604   17.5737    0.0000 H   0  0  0  0  0  0  0  0  0  0  0  0
    5.3248    0.9862    0.0000 H   0  0  0  0  0  0  0  0  0  0  0  0
    2.5429   10.4269    0.0000 H   0  0  0  0  0  0  0  0  0  0  0  0
    2.5429    0.6199    0.0000 H   0  0  0  0  0  0  0  0  0  0  0  0
    5.3248   10.7932    0.0000 H   0  0  0  0  0  0  0  0  0  0  0  0
    4.0396    0.0000    0.0000 H   0  0  0  0  0  0  0  0  0  0  0  0
    4.0396    9.8070    0.0000 H   0  0  0  0  0  0  0  0  0  0  0  0
    0.0000    4.5308    0.0000 H   0  0  0  0  0  0  0  0  0  0  0  0
    0.0000   14.3378    0.0000 H   0  0  0  0  0  0  0  0  0  0  0  0
    8.4758    3.7884    0.0000 H   0  0  0  0  0  0  0  0  0  0  0  0
    8.4758   13.5954    0.0000 H   0  0  0  0  0  0  0  0  0  0  0  0
  1 35  1  0  0  0  0
  1 51  1  0  0  0  0
  2 36  1  0  0  0  0
  2 52  1  0  0  0  0
  3 27  2  0  0  0  0
  4 28  2  0  0  0  0
  5 33  1  0  0  0  0
  5101  1  0  0  0  0
  6 34  1  0  0  0  0
  6102  1  0  0  0  0
  7 47  2  0  0  0  0
  8 48  2  0  0  0  0
  9 11  1  0  0  0  0
  9 17  1  0  0  0  0
  9 19  1  0  0  0  0
 10 12  1  0  0  0  0
 10 18  1  0  0  0  0
 10 20  1  0  0  0  0
 11 21  1  0  0  0  0
 11 31  1  0  0  0  0
 12 22  1  0  0  0  0
 12 32  1  0  0  0  0
 13 19  1  0  0  0  0
 13 27  1  0  0  0  0
 13 29  1  0  0  0  0
 14 20  1  0  0  0  0
 14 28  1  0  0  0  0
 14 30  1  0  0  0  0
 15 41  2  0  0  0  0
 15 61  1  0  0  0  0
 16 42  2  0  0  0  0
 16 62  1  0  0  0  0
 17 23  1  0  0  0  0
 17 25  1  0  0  0  0
 17 63  1  0  0  0  0
 18 24  1  0  0  0  0
 18 26  1  0  0  0  0
 18 64  1  0  0  0  0
 19 65  1  0  0  0  0
 19 66  1  0  0  0  0
 20 67  1  0  0  0  0
 20 68  1  0  0  0  0
 21 27  1  0  0  0  0
 21 33  2  0  0  0  0
 22 28  1  0  0  0  0
 22 34  2  0  0  0  0
 23 35  2  0  0  0  0
 23 41  1  0  0  0  0
 24 36  2  0  0  0  0
 24 42  1  0  0  0  0
 25 37  2  0  0  0  0
 25 39  1  0  0  0  0
 26 38  2  0  0  0  0
 26 40  1  0  0  0  0
 29 45  1  0  0  0  0
 29 69  1  0  0  0  0
 29 70  1  0  0  0  0
 30 46  1  0  0  0  0
 30 71  1  0  0  0  0
 30 72  1  0  0  0  0
 31 43  2  0  0  0  0
 31 73  1  0  0  0  0
 32 44  2  0  0  0  0
 32 74  1  0  0  0  0
 33 47  1  0  0  0  0
 34 48  1  0  0  0  0
 35 49  1  0  0  0  0
 36 50  1  0  0  0  0
 37 55  1  0  0  0  0
 37 75  1  0  0  0  0
 38 56  1  0  0  0  0
 38 76  1  0  0  0  0
 39 57  2  0  0  0  0
 39 77  1  0  0  0  0
 40 58  2  0  0  0  0
 40 78  1  0  0  0  0
 41 79  1  0  0  0  0
 42 80  1  0  0  0  0
 43 47  1  0  0  0  0
 43 81  1  0  0  0  0
 44 48  1  0  0  0  0
 44 82  1  0  0  0  0
 45 53  2  0  0  0  0
 45 83  1  0  0  0  0
 46 54  2  0  0  0  0
 46 84  1  0  0  0  0
 49 61  2  0  0  0  0
 49 85  1  0  0  0  0
 50 62  2  0  0  0  0
 50 86  1  0  0  0  0
 51 53  1  0  0  0  0
 51 87  1  0  0  0  0
 51 88  1  0  0  0  0
 52 54  1  0  0  0  0
 52 89  1  0  0  0  0
 52 90  1  0  0  0  0
 53 91  1  0  0  0  0
 54 92  1  0  0  0  0
 55 59  2  0  0  0  0
 55 93  1  0  0  0  0
 56 60  2  0  0  0  0
 56 94  1  0  0  0  0
 57 59  1  0  0  0  0
 57 95  1  0  0  0  0
 58 60  1  0  0  0  0
 58 96  1  0  0  0  0
 59 97  1  0  0  0  0
 60 98  1  0  0  0  0
 61 99  1  0  0  0  0
 62100  1  0  0  0  0
M  END
> <PUBCHEM_COMPOUND_CID>
171666295

> <PUBCHEM_COMPOUND_CANONICALIZED>
1

> <PUBCHEM_CACTVS_COMPLEXITY>
816

> <PUBCHEM_CACTVS_HBOND_ACCEPTOR>
14

> <PUBCHEM_CACTVS_HBOND_DONOR>
2

> <PUBCHEM_CACTVS_ROTATABLE_BOND>
2

> <PUBCHEM_CACTVS_SUBSKEYS>
AAADcfB//AAAAAAAAAAAAAAAAAAAAAAAAAA8eLFiAAAAAACB9AAAHgAICAAADCzhmgY9hpMIFgCoArV3VAKCiCAxIiAc2CD+bNiMZGLE8buWeCjuxwrI6ceQwOAOAAAAAAAAAAAAAAAAAAAAAAAAAAAAAA==

> <PUBCHEM_IUPAC_OPENEYE_NAME>
(11Z)-17-hydroxy-2-phenyl-9-oxa-1,5,14,21-tetrazatetracyclo[12.7.1.03,8.016,21]docosa-3(8),4,6,11,16,19-hexaene-15,18-dione

> <PUBCHEM_IUPAC_CAS_NAME>
(11Z)-17-hydroxy-2-phenyl-9-oxa-1,5,14,21-tetrazatetracyclo[12.7.1.03,8.016,21]docosa-3(8),4,6,11,16,19-hexaene-15,18-dione

> <PUBCHEM_IUPAC_NAME_MARKUP>
(11<I>Z</I>)-17-hydroxy-2-phenyl-9-oxa-1,5,14,21-tetrazatetracyclo[12.7.1.0<SUP>3,8</SUP>.0<SUP>16,21</SUP>]docosa-3(8),4,6,11,16,19-hexaene-15,18-dione

> <PUBCHEM_IUPAC_NAME>
(11Z)-17-hydroxy-2-phenyl-9-oxa-1,5,14,21-tetrazatetracyclo[12.7.1.03,8.016,21]docosa-3(8),4,6,11,16,19-hexaene-15,18-dione

> <PUBCHEM_IUPAC_SYSTEMATIC_NAME>
(11Z)-17-oxidanyl-2-phenyl-9-oxa-1,5,14,21-tetrazatetracyclo[12.7.1.03,8.016,21]docosa-3(8),4,6,11,16,19-hexaene-15,18-dione

> <PUBCHEM_IUPAC_TRADITIONAL_NAME>
(11Z)-17-hydroxy-2-phenyl-9-oxa-1,5,14,21-tetrazatetracyclo[12.7.1.03,8.016,21]docosa-3(8),4,6,11,16,19-hexaene-15,18-quinone

> <PUBCHEM_IUPAC_INCHI>
InChI=1S/2C23H20N4O4/c2*28-18-9-12-26-21(22(18)29)23(30)25-11-4-5-13-31-19-8-10-24-14-17(19)20(27(26)15-25)16-6-2-1-3-7-16/h2*1-10,12,14,20,29H,11,13,15H2/b2*5-4-

> <PUBCHEM_IUPAC_INCHIKEY>
ZKKJCEMUENOBKY-KERYXKJGSA-N

> <PUBCHEM_EXACT_MASS>
832.29691026

> <PUBCHEM_MOLECULAR_FORMULA>
C46H40N8O8

> <PUBCHEM_MOLECULAR_WEIGHT>
832.9

> <PUBCHEM_SMILES>
C/1N2C(=O)C3=C(C(=O)C=CN3N(C2)C(C4=C(OC/C=C1)C=CN=C4)C5=CC=CC=C5)O.C/1N2C(=O)C3=C(C(=O)C=CN3N(C2)C(C4=C(OC/C=C1)C=CN=C4)C5=CC=CC=C5)O

> <PUBCHEM_CONNECTIVITY_SMILES>
C1C=CCOC2=C(C=NC=C2)C(N3CN1C(=O)C4=C(C(=O)C=CN43)O)C5=CC=CC=C5.C1C=CCOC2=C(C=NC=C2)C(N3CN1C(=O)C4=C(C(=O)C=CN43)O)C5=CC=CC=C5

> <PUBCHEM_CACTVS_TPSA>
172

> <PUBCHEM_MONOISOTOPIC_WEIGHT>
832.29691026

> <PUBCHEM_TOTAL_CHARGE>
0

> <PUBCHEM_HEAVY_ATOM_COUNT>
62

> <PUBCHEM_ATOM_DEF_STEREO_COUNT>
0

> <PUBCHEM_ATOM_UDEF_STEREO_COUNT>
2

> <PUBCHEM_BOND_DEF_STEREO_COUNT>
2

> <PUBCHEM_BOND_UDEF_STEREO_COUNT>
0

> <PUBCHEM_ISOTOPIC_ATOM_COUNT>
0

> <PUBCHEM_COMPONENT_COUNT>
2

> <PUBCHEM_CACTVS_TAUTO_COUNT>
-1

> <PUBCHEM_COORDINATE_TYPE>
1
5
255

> <PUBCHEM_BONDANNOTATIONS>
11  21  8
11  31  8
12  22  8
12  32  8
15  41  8
15  61  8
16  42  8
16  62  8
17  25  3
18  26  3
21  33  8
22  34  8
23  35  8
23  41  8
24  36  8
24  42  8
25  37  8
25  39  8
26  38  8
26  40  8
31  43  8
32  44  8
33  47  8
34  48  8
35  49  8
36  50  8
37  55  8
38  56  8
39  57  8
40  58  8
43  47  8
44  48  8
49  61  8
50  62  8
55  59  8
56  60  8
57  59  8
58  60  8

$$$$
