10125785
  -OEChem-04182609252D

 43 41  0     1  0  0  0  0  0999 V2000
    4.0010    2.8100    0.0000 O   0  0  0  0  0  0  0  0  0  0  0  0
    3.1350    0.3100    0.0000 O   0  0  0  0  0  0  0  0  0  0  0  0
    4.8671    0.3100    0.0000 O   0  0  0  0  0  0  0  0  0  0  0  0
    2.2690    2.8100    0.0000 O   0  0  0  0  0  0  0  0  0  0  0  0
    6.5991    1.3100    0.0000 O   0  0  0  0  0  0  0  0  0  0  0  0
    0.5369    1.8100    0.0000 O   0  0  0  0  0  0  0  0  0  0  0  0
    1.4030    0.3100    0.0000 O   0  0  0  0  0  0  0  0  0  0  0  0
    1.4030    7.2400    0.0000 O   0  0  0  0  0  0  0  0  0  0  0  0
    2.2690    5.7400    0.0000 O   0  0  0  0  0  0  0  0  0  0  0  0
    4.0010    6.7400    0.0000 N   0  0  0  0  0  0  0  0  0  0  0  0
    5.7331    6.7400    0.0000 N   0  0  0  0  0  0  0  0  0  0  0  0
    4.8671    8.2400    0.0000 N   0  0  0  0  0  0  0  0  0  0  0  0
    4.0010    1.8100    0.0000 C   0  0  3  0  0  0  0  0  0  0  0  0
    3.1350    1.3100    0.0000 C   0  0  3  0  0  0  0  0  0  0  0  0
    4.8671    1.3100    0.0000 C   0  0  3  0  0  0  0  0  0  0  0  0
    2.2690    1.8100    0.0000 C   0  0  3  0  0  0  0  0  0  0  0  0
    5.7331    1.8100    0.0000 C   0  0  0  0  0  0  0  0  0  0  0  0
    1.4030    1.3100    0.0000 C   0  0  0  0  0  0  0  0  0  0  0  0
    3.1350    7.2400    0.0000 C   0  0  0  0  0  0  0  0  0  0  0  0
    4.0010    5.7400    0.0000 C   0  0  0  0  0  0  0  0  0  0  0  0
    4.8671    7.2400    0.0000 C   0  0  0  0  0  0  0  0  0  0  0  0
    2.2690    6.7400    0.0000 C   0  0  0  0  0  0  0  0  0  0  0  0
    4.5380    2.1200    0.0000 H   0  0  0  0  0  0  0  0  0  0  0  0
    3.6720    1.0000    0.0000 H   0  0  0  0  0  0  0  0  0  0  0  0
    4.3301    1.0000    0.0000 H   0  0  0  0  0  0  0  0  0  0  0  0
    2.8059    2.1200    0.0000 H   0  0  0  0  0  0  0  0  0  0  0  0
    6.1316    2.2850    0.0000 H   0  0  0  0  0  0  0  0  0  0  0  0
    5.3346    2.2850    0.0000 H   0  0  0  0  0  0  0  0  0  0  0  0
    4.5380    3.1200    0.0000 H   0  0  0  0  0  0  0  0  0  0  0  0
    2.5981    0.0000    0.0000 H   0  0  0  0  0  0  0  0  0  0  0  0
    5.4040    0.0000    0.0000 H   0  0  0  0  0  0  0  0  0  0  0  0
    1.7321    3.1200    0.0000 H   0  0  0  0  0  0  0  0  0  0  0  0
    7.1361    1.6200    0.0000 H   0  0  0  0  0  0  0  0  0  0  0  0
    0.0000    1.5000    0.0000 H   0  0  0  0  0  0  0  0  0  0  0  0
    3.5335    7.7150    0.0000 H   0  0  0  0  0  0  0  0  0  0  0  0
    2.7365    7.7150    0.0000 H   0  0  0  0  0  0  0  0  0  0  0  0
    3.3810    5.7400    0.0000 H   0  0  0  0  0  0  0  0  0  0  0  0
    4.0010    5.1200    0.0000 H   0  0  0  0  0  0  0  0  0  0  0  0
    4.6210    5.7400    0.0000 H   0  0  0  0  0  0  0  0  0  0  0  0
    6.2700    7.0500    0.0000 H   0  0  0  0  0  0  0  0  0  0  0  0
    5.7331    6.1200    0.0000 H   0  0  0  0  0  0  0  0  0  0  0  0
    5.4040    8.5500    0.0000 H   0  0  0  0  0  0  0  0  0  0  0  0
    0.8660    6.9300    0.0000 H   0  0  0  0  0  0  0  0  0  0  0  0
  1 13  1  0  0  0  0
  1 29  1  0  0  0  0
  2 14  1  0  0  0  0
  2 30  1  0  0  0  0
  3 15  1  0  0  0  0
  3 31  1  0  0  0  0
  4 16  1  0  0  0  0
  4 32  1  0  0  0  0
  5 17  1  0  0  0  0
  5 33  1  0  0  0  0
  6 18  1  0  0  0  0
  6 34  1  0  0  0  0
  7 18  2  0  0  0  0
  8 22  1  0  0  0  0
  8 43  1  0  0  0  0
  9 22  2  0  0  0  0
 10 19  1  0  0  0  0
 10 20  1  0  0  0  0
 10 21  1  0  0  0  0
 11 21  1  0  0  0  0
 11 40  1  0  0  0  0
 11 41  1  0  0  0  0
 12 21  2  0  0  0  0
 12 42  1  0  0  0  0
 13 14  1  0  0  0  0
 13 15  1  0  0  0  0
 13 23  1  0  0  0  0
 14 16  1  0  0  0  0
 14 24  1  0  0  0  0
 15 17  1  0  0  0  0
 15 25  1  0  0  0  0
 16 18  1  0  0  0  0
 16 26  1  0  0  0  0
 17 27  1  0  0  0  0
 17 28  1  0  0  0  0
 19 22  1  0  0  0  0
 19 35  1  0  0  0  0
 19 36  1  0  0  0  0
 20 37  1  0  0  0  0
 20 38  1  0  0  0  0
 20 39  1  0  0  0  0
M  END
> <PUBCHEM_COMPOUND_CID>
10125785

> <PUBCHEM_COMPOUND_CANONICALIZED>
1

> <PUBCHEM_CACTVS_COMPLEXITY>
304

> <PUBCHEM_CACTVS_HBOND_ACCEPTOR>
10

> <PUBCHEM_CACTVS_HBOND_DONOR>
9

> <PUBCHEM_CACTVS_ROTATABLE_BOND>
8

> <PUBCHEM_CACTVS_SUBSKEYS>
AAADceBzPAAAAAAAAAAAAAAAAAAAAAAAAAAAAAAAAAAAAAAAAAAAHgAQCAAACBThgAYDCANAAgAoAACQKAIAAACAAAABAAHIAACDEBYACCAAQAAFIAIRAAHKbARAAAAAAAAAAAAAAAAAAAAAAAAAAAAAAA==

> <PUBCHEM_IUPAC_OPENEYE_NAME>
2-[carbamimidoyl(methyl)amino]acetic acid;2,3,4,5,6-pentahydroxyhexanoic acid

> <PUBCHEM_IUPAC_CAS_NAME>
2-[carbamimidoyl(methyl)amino]acetic acid;2,3,4,5,6-pentahydroxyhexanoic acid

> <PUBCHEM_IUPAC_NAME_MARKUP>
2-[carbamimidoyl(methyl)amino]acetic acid;2,3,4,5,6-pentahydroxyhexanoic acid

> <PUBCHEM_IUPAC_NAME>
2-[carbamimidoyl(methyl)amino]acetic acid;2,3,4,5,6-pentahydroxyhexanoic acid

> <PUBCHEM_IUPAC_SYSTEMATIC_NAME>
2-[carbamimidoyl(methyl)amino]ethanoic acid;2,3,4,5,6-pentakis(oxidanyl)hexanoic acid

> <PUBCHEM_IUPAC_TRADITIONAL_NAME>
2-[amidino(methyl)amino]acetic acid;2,3,4,5,6-pentahydroxyhexanoic acid

> <PUBCHEM_IUPAC_INCHI>
InChI=1S/C6H12O7.C4H9N3O2/c7-1-2(8)3(9)4(10)5(11)6(12)13;1-7(4(5)6)2-3(8)9/h2-5,7-11H,1H2,(H,12,13);2H2,1H3,(H3,5,6)(H,8,9)

> <PUBCHEM_IUPAC_INCHIKEY>
MUKYLHIZBOASDM-UHFFFAOYSA-N

> <PUBCHEM_EXACT_MASS>
327.12777926

> <PUBCHEM_MOLECULAR_FORMULA>
C10H21N3O9

> <PUBCHEM_MOLECULAR_WEIGHT>
327.29

> <PUBCHEM_SMILES>
CN(CC(=O)O)C(=N)N.C(C(C(C(C(C(=O)O)O)O)O)O)O

> <PUBCHEM_CONNECTIVITY_SMILES>
CN(CC(=O)O)C(=N)N.C(C(C(C(C(C(=O)O)O)O)O)O)O

> <PUBCHEM_CACTVS_TPSA>
229

> <PUBCHEM_MONOISOTOPIC_WEIGHT>
327.12777926

> <PUBCHEM_TOTAL_CHARGE>
0

> <PUBCHEM_HEAVY_ATOM_COUNT>
22

> <PUBCHEM_ATOM_DEF_STEREO_COUNT>
0

> <PUBCHEM_ATOM_UDEF_STEREO_COUNT>
4

> <PUBCHEM_BOND_DEF_STEREO_COUNT>
0

> <PUBCHEM_BOND_UDEF_STEREO_COUNT>
0

> <PUBCHEM_ISOTOPIC_ATOM_COUNT>
0

> <PUBCHEM_COMPONENT_COUNT>
2

> <PUBCHEM_CACTVS_TAUTO_COUNT>
-1

> <PUBCHEM_COORDINATE_TYPE>
1
5
255

> <PUBCHEM_BONDANNOTATIONS>
13  1  3
14  2  3
15  3  3
16  4  3

$$$$
