5287554
  -OEChem-04172611472D

112113  0     0  0  0  0  0  0999 V2000
   27.1147   -2.0000    0.0000 O   0  0  0  0  0  0  0  0  0  0  0  0
   27.1147    2.0000    0.0000 O   0  0  0  0  0  0  0  0  0  0  0  0
   15.8564   -0.5000    0.0000 C   0  0  0  0  0  0  0  0  0  0  0  0
   19.3205   -0.5000    0.0000 C   0  0  0  0  0  0  0  0  0  0  0  0
   18.4545   -1.0000    0.0000 C   0  0  0  0  0  0  0  0  0  0  0  0
   12.3923   -0.5000    0.0000 C   0  0  0  0  0  0  0  0  0  0  0  0
   22.7846   -0.5000    0.0000 C   0  0  0  0  0  0  0  0  0  0  0  0
   14.9904   -1.0000    0.0000 C   0  0  0  0  0  0  0  0  0  0  0  0
   21.9186   -1.0000    0.0000 C   0  0  0  0  0  0  0  0  0  0  0  0
   16.7224   -1.0000    0.0000 C   0  0  0  0  0  0  0  0  0  0  0  0
   11.5263   -1.0000    0.0000 C   0  0  0  0  0  0  0  0  0  0  0  0
   20.1865   -1.0000    0.0000 C   0  0  0  0  0  0  0  0  0  0  0  0
   26.2487   -0.5000    0.0000 C   0  0  0  0  0  0  0  0  0  0  0  0
   13.2583   -1.0000    0.0000 C   0  0  0  0  0  0  0  0  0  0  0  0
   25.3827   -1.0000    0.0000 C   0  0  0  0  0  0  0  0  0  0  0  0
   23.6506   -1.0000    0.0000 C   0  0  0  0  0  0  0  0  0  0  0  0
    8.9282   -0.5000    0.0000 C   0  0  0  0  0  0  0  0  0  0  0  0
   17.5885   -0.5000    0.0000 C   0  0  0  0  0  0  0  0  0  0  0  0
   14.1244   -0.5000    0.0000 C   0  0  0  0  0  0  0  0  0  0  0  0
    9.7942   -1.0000    0.0000 C   0  0  0  0  0  0  0  0  0  0  0  0
   21.0526   -0.5000    0.0000 C   0  0  0  0  0  0  0  0  0  0  0  0
   26.2487    0.5000    0.0000 C   0  0  0  0  0  0  0  0  0  0  0  0
   24.5167   -0.5000    0.0000 C   0  0  0  0  0  0  0  0  0  0  0  0
    8.0622   -1.0000    0.0000 C   0  0  0  0  0  0  0  0  0  0  0  0
   10.6603   -0.5000    0.0000 C   0  0  0  0  0  0  0  0  0  0  0  0
   27.9808   -0.5000    0.0000 C   0  0  0  0  0  0  0  0  0  0  0  0
   27.1147   -1.0000    0.0000 C   0  0  0  0  0  0  0  0  0  0  0  0
   27.9808    0.5000    0.0000 C   0  0  0  0  0  0  0  0  0  0  0  0
   27.1147    1.0000    0.0000 C   0  0  0  0  0  0  0  0  0  0  0  0
    7.1962   -0.5000    0.0000 C   0  0  0  0  0  0  0  0  0  0  0  0
    6.3301   -1.0000    0.0000 C   0  0  0  0  0  0  0  0  0  0  0  0
   16.7224   -2.0000    0.0000 C   0  0  0  0  0  0  0  0  0  0  0  0
   20.1865   -2.0000    0.0000 C   0  0  0  0  0  0  0  0  0  0  0  0
   13.2583   -2.0000    0.0000 C   0  0  0  0  0  0  0  0  0  0  0  0
    5.4641   -0.5000    0.0000 C   0  0  0  0  0  0  0  0  0  0  0  0
   23.6506   -2.0000    0.0000 C   0  0  0  0  0  0  0  0  0  0  0  0
    9.7942   -2.0000    0.0000 C   0  0  0  0  0  0  0  0  0  0  0  0
   25.3827    1.0000    0.0000 C   0  0  0  0  0  0  0  0  0  0  0  0
    4.5981   -1.0000    0.0000 C   0  0  0  0  0  0  0  0  0  0  0  0
   28.8747   -1.0347    0.0000 C   0  0  0  0  0  0  0  0  0  0  0  0
   28.8747    1.0347    0.0000 C   0  0  0  0  0  0  0  0  0  0  0  0
    6.3301   -2.0000    0.0000 C   0  0  0  0  0  0  0  0  0  0  0  0
   29.7808   -0.5208    0.0000 C   0  0  0  0  0  0  0  0  0  0  0  0
   29.7808    0.5208    0.0000 C   0  0  0  0  0  0  0  0  0  0  0  0
    3.7320   -0.5000    0.0000 C   0  0  0  0  0  0  0  0  0  0  0  0
    2.8660   -1.0000    0.0000 C   0  0  0  0  0  0  0  0  0  0  0  0
    2.0000   -0.5000    0.0000 C   0  0  0  0  0  0  0  0  0  0  0  0
    2.8660   -2.0000    0.0000 C   0  0  0  0  0  0  0  0  0  0  0  0
   16.2549   -0.0251    0.0000 H   0  0  0  0  0  0  0  0  0  0  0  0
   15.4579   -0.0251    0.0000 H   0  0  0  0  0  0  0  0  0  0  0  0
   19.7190   -0.0251    0.0000 H   0  0  0  0  0  0  0  0  0  0  0  0
   18.9220   -0.0251    0.0000 H   0  0  0  0  0  0  0  0  0  0  0  0
   12.7908   -0.0251    0.0000 H   0  0  0  0  0  0  0  0  0  0  0  0
   11.9938   -0.0251    0.0000 H   0  0  0  0  0  0  0  0  0  0  0  0
   18.0560   -1.4750    0.0000 H   0  0  0  0  0  0  0  0  0  0  0  0
   18.8530   -1.4750    0.0000 H   0  0  0  0  0  0  0  0  0  0  0  0
   23.1831   -0.0251    0.0000 H   0  0  0  0  0  0  0  0  0  0  0  0
   22.3861   -0.0251    0.0000 H   0  0  0  0  0  0  0  0  0  0  0  0
   14.5919   -1.4750    0.0000 H   0  0  0  0  0  0  0  0  0  0  0  0
   15.3889   -1.4750    0.0000 H   0  0  0  0  0  0  0  0  0  0  0  0
   21.5201   -1.4750    0.0000 H   0  0  0  0  0  0  0  0  0  0  0  0
   22.3171   -1.4750    0.0000 H   0  0  0  0  0  0  0  0  0  0  0  0
   11.1278   -1.4750    0.0000 H   0  0  0  0  0  0  0  0  0  0  0  0
   11.9248   -1.4750    0.0000 H   0  0  0  0  0  0  0  0  0  0  0  0
   24.9842   -1.4750    0.0000 H   0  0  0  0  0  0  0  0  0  0  0  0
   25.7812   -1.4750    0.0000 H   0  0  0  0  0  0  0  0  0  0  0  0
    9.3267   -0.0251    0.0000 H   0  0  0  0  0  0  0  0  0  0  0  0
    8.5297   -0.0251    0.0000 H   0  0  0  0  0  0  0  0  0  0  0  0
   17.5885    0.1200    0.0000 H   0  0  0  0  0  0  0  0  0  0  0  0
   14.1244    0.1200    0.0000 H   0  0  0  0  0  0  0  0  0  0  0  0
   21.0526    0.1200    0.0000 H   0  0  0  0  0  0  0  0  0  0  0  0
    7.6636   -1.4750    0.0000 H   0  0  0  0  0  0  0  0  0  0  0  0
    8.4607   -1.4750    0.0000 H   0  0  0  0  0  0  0  0  0  0  0  0
   24.5167    0.1200    0.0000 H   0  0  0  0  0  0  0  0  0  0  0  0
   10.6603    0.1200    0.0000 H   0  0  0  0  0  0  0  0  0  0  0  0
    7.1962    0.1200    0.0000 H   0  0  0  0  0  0  0  0  0  0  0  0
   16.1024   -2.0000    0.0000 H   0  0  0  0  0  0  0  0  0  0  0  0
   16.7224   -2.6200    0.0000 H   0  0  0  0  0  0  0  0  0  0  0  0
   17.3424   -2.0000    0.0000 H   0  0  0  0  0  0  0  0  0  0  0  0
   19.5665   -2.0000    0.0000 H   0  0  0  0  0  0  0  0  0  0  0  0
   20.1865   -2.6200    0.0000 H   0  0  0  0  0  0  0  0  0  0  0  0
   20.8065   -2.0000    0.0000 H   0  0  0  0  0  0  0  0  0  0  0  0
   12.6383   -2.0000    0.0000 H   0  0  0  0  0  0  0  0  0  0  0  0
   13.2583   -2.6200    0.0000 H   0  0  0  0  0  0  0  0  0  0  0  0
   13.8783   -2.0000    0.0000 H   0  0  0  0  0  0  0  0  0  0  0  0
    5.8626   -0.0251    0.0000 H   0  0  0  0  0  0  0  0  0  0  0  0
    5.0656   -0.0251    0.0000 H   0  0  0  0  0  0  0  0  0  0  0  0
   23.0306   -2.0000    0.0000 H   0  0  0  0  0  0  0  0  0  0  0  0
   23.6506   -2.6200    0.0000 H   0  0  0  0  0  0  0  0  0  0  0  0
   24.2706   -2.0000    0.0000 H   0  0  0  0  0  0  0  0  0  0  0  0
    9.1742   -2.0000    0.0000 H   0  0  0  0  0  0  0  0  0  0  0  0
    9.7942   -2.6200    0.0000 H   0  0  0  0  0  0  0  0  0  0  0  0
   10.4142   -2.0000    0.0000 H   0  0  0  0  0  0  0  0  0  0  0  0
   25.6927    1.5369    0.0000 H   0  0  0  0  0  0  0  0  0  0  0  0
   24.8458    1.3100    0.0000 H   0  0  0  0  0  0  0  0  0  0  0  0
   25.0727    0.4631    0.0000 H   0  0  0  0  0  0  0  0  0  0  0  0
    4.1996   -1.4750    0.0000 H   0  0  0  0  0  0  0  0  0  0  0  0
    4.9966   -1.4750    0.0000 H   0  0  0  0  0  0  0  0  0  0  0  0
   28.8675   -1.6546    0.0000 H   0  0  0  0  0  0  0  0  0  0  0  0
   28.8675    1.6546    0.0000 H   0  0  0  0  0  0  0  0  0  0  0  0
    5.7101   -2.0000    0.0000 H   0  0  0  0  0  0  0  0  0  0  0  0
    6.3301   -2.6200    0.0000 H   0  0  0  0  0  0  0  0  0  0  0  0
    6.9501   -2.0000    0.0000 H   0  0  0  0  0  0  0  0  0  0  0  0
   30.3165   -0.8329    0.0000 H   0  0  0  0  0  0  0  0  0  0  0  0
   30.3165    0.8329    0.0000 H   0  0  0  0  0  0  0  0  0  0  0  0
    3.7320    0.1200    0.0000 H   0  0  0  0  0  0  0  0  0  0  0  0
    2.3100    0.0369    0.0000 H   0  0  0  0  0  0  0  0  0  0  0  0
    1.4631   -0.1900    0.0000 H   0  0  0  0  0  0  0  0  0  0  0  0
    1.6900   -1.0369    0.0000 H   0  0  0  0  0  0  0  0  0  0  0  0
    2.2460   -2.0000    0.0000 H   0  0  0  0  0  0  0  0  0  0  0  0
    2.8660   -2.6200    0.0000 H   0  0  0  0  0  0  0  0  0  0  0  0
    3.4860   -2.0000    0.0000 H   0  0  0  0  0  0  0  0  0  0  0  0
  1 27  2  0  0  0  0
  2 29  2  0  0  0  0
  3  8  1  0  0  0  0
  3 10  1  0  0  0  0
  3 49  1  0  0  0  0
  3 50  1  0  0  0  0
  4  5  1  0  0  0  0
  4 12  1  0  0  0  0
  4 51  1  0  0  0  0
  4 52  1  0  0  0  0
  5 18  1  0  0  0  0
  5 55  1  0  0  0  0
  5 56  1  0  0  0  0
  6 11  1  0  0  0  0
  6 14  1  0  0  0  0
  6 53  1  0  0  0  0
  6 54  1  0  0  0  0
  7  9  1  0  0  0  0
  7 16  1  0  0  0  0
  7 57  1  0  0  0  0
  7 58  1  0  0  0  0
  8 19  1  0  0  0  0
  8 59  1  0  0  0  0
  8 60  1  0  0  0  0
  9 21  1  0  0  0  0
  9 61  1  0  0  0  0
  9 62  1  0  0  0  0
 10 18  2  0  0  0  0
 10 32  1  0  0  0  0
 11 25  1  0  0  0  0
 11 63  1  0  0  0  0
 11 64  1  0  0  0  0
 12 21  2  0  0  0  0
 12 33  1  0  0  0  0
 13 15  1  0  0  0  0
 13 22  2  0  0  0  0
 13 27  1  0  0  0  0
 14 19  2  0  0  0  0
 14 34  1  0  0  0  0
 15 23  1  0  0  0  0
 15 65  1  0  0  0  0
 15 66  1  0  0  0  0
 16 23  2  0  0  0  0
 16 36  1  0  0  0  0
 17 20  1  0  0  0  0
 17 24  1  0  0  0  0
 17 67  1  0  0  0  0
 17 68  1  0  0  0  0
 18 69  1  0  0  0  0
 19 70  1  0  0  0  0
 20 25  2  0  0  0  0
 20 37  1  0  0  0  0
 21 71  1  0  0  0  0
 22 29  1  0  0  0  0
 22 38  1  0  0  0  0
 23 74  1  0  0  0  0
 24 30  1  0  0  0  0
 24 72  1  0  0  0  0
 24 73  1  0  0  0  0
 25 75  1  0  0  0  0
 26 27  1  0  0  0  0
 26 28  1  0  0  0  0
 26 40  2  0  0  0  0
 28 29  1  0  0  0  0
 28 41  2  0  0  0  0
 30 31  2  0  0  0  0
 30 76  1  0  0  0  0
 31 35  1  0  0  0  0
 31 42  1  0  0  0  0
 32 77  1  0  0  0  0
 32 78  1  0  0  0  0
 32 79  1  0  0  0  0
 33 80  1  0  0  0  0
 33 81  1  0  0  0  0
 33 82  1  0  0  0  0
 34 83  1  0  0  0  0
 34 84  1  0  0  0  0
 34 85  1  0  0  0  0
 35 39  1  0  0  0  0
 35 86  1  0  0  0  0
 35 87  1  0  0  0  0
 36 88  1  0  0  0  0
 36 89  1  0  0  0  0
 36 90  1  0  0  0  0
 37 91  1  0  0  0  0
 37 92  1  0  0  0  0
 37 93  1  0  0  0  0
 38 94  1  0  0  0  0
 38 95  1  0  0  0  0
 38 96  1  0  0  0  0
 39 45  1  0  0  0  0
 39 97  1  0  0  0  0
 39 98  1  0  0  0  0
 40 43  1  0  0  0  0
 40 99  1  0  0  0  0
 41 44  1  0  0  0  0
 41100  1  0  0  0  0
 42101  1  0  0  0  0
 42102  1  0  0  0  0
 42103  1  0  0  0  0
 43 44  2  0  0  0  0
 43104  1  0  0  0  0
 44105  1  0  0  0  0
 45 46  2  0  0  0  0
 45106  1  0  0  0  0
 46 47  1  0  0  0  0
 46 48  1  0  0  0  0
 47107  1  0  0  0  0
 47108  1  0  0  0  0
 47109  1  0  0  0  0
 48110  1  0  0  0  0
 48111  1  0  0  0  0
 48112  1  0  0  0  0
M  END
> <PUBCHEM_COMPOUND_CID>
5287554

> <PUBCHEM_COMPOUND_CANONICALIZED>
1

> <PUBCHEM_CACTVS_COMPLEXITY>
1310

> <PUBCHEM_CACTVS_HBOND_ACCEPTOR>
2

> <PUBCHEM_CACTVS_HBOND_DONOR>
0

> <PUBCHEM_CACTVS_ROTATABLE_BOND>
20

> <PUBCHEM_CACTVS_SUBSKEYS>
AAADcfB8MAAAAAAAAAAAAAAAAAAAAAAAAAAwQAAAAAAAAACBAAAAGgAAAAAADASAmAAyAIAAAACIAqBSAAACAAAkAAAIiAEAAMgIIDKAFRCAIQAggAAIiYcJiMCOgAAAAAAQAAAAAAAAACAAAAAAAAAAAA==

> <PUBCHEM_IUPAC_OPENEYE_NAME>
2-[(2E,6E,10E,14E,18E,22E)-3,7,11,15,19,23,27-heptamethyloctacosa-2,6,10,14,18,22,26-heptaenyl]-3-methyl-naphthalene-1,4-dione

> <PUBCHEM_IUPAC_CAS_NAME>
2-[(2E,6E,10E,14E,18E,22E)-3,7,11,15,19,23,27-heptamethyloctacosa-2,6,10,14,18,22,26-heptaenyl]-3-methylnaphthalene-1,4-dione

> <PUBCHEM_IUPAC_NAME_MARKUP>
2-[(2<I>E</I>,6<I>E</I>,10<I>E</I>,14<I>E</I>,18<I>E</I>,22<I>E</I>)-3,7,11,15,19,23,27-heptamethyloctacosa-2,6,10,14,18,22,26-heptaenyl]-3-methylnaphthalene-1,4-dione

> <PUBCHEM_IUPAC_NAME>
2-[(2E,6E,10E,14E,18E,22E)-3,7,11,15,19,23,27-heptamethyloctacosa-2,6,10,14,18,22,26-heptaenyl]-3-methylnaphthalene-1,4-dione

> <PUBCHEM_IUPAC_SYSTEMATIC_NAME>
2-[(2E,6E,10E,14E,18E,22E)-3,7,11,15,19,23,27-heptamethyloctacosa-2,6,10,14,18,22,26-heptaenyl]-3-methyl-naphthalene-1,4-dione

> <PUBCHEM_IUPAC_TRADITIONAL_NAME>
2-[(2E,6E,10E,14E,18E,22E)-3,7,11,15,19,23,27-heptamethyloctacosa-2,6,10,14,18,22,26-heptaenyl]-3-methyl-1,4-naphthoquinone

> <PUBCHEM_IUPAC_INCHI>
InChI=1S/C46H64O2/c1-34(2)18-12-19-35(3)20-13-21-36(4)22-14-23-37(5)24-15-25-38(6)26-16-27-39(7)28-17-29-40(8)32-33-42-41(9)45(47)43-30-10-11-31-44(43)46(42)48/h10-11,18,20,22,24,26,28,30-32H,12-17,19,21,23,25,27,29,33H2,1-9H3/b35-20+,36-22+,37-24+,38-26+,39-28+,40-32+

> <PUBCHEM_IUPAC_INCHIKEY>
RAKQPZMEYJZGPI-LJWNYQGCSA-N

> <PUBCHEM_XLOGP3>
14.5

> <PUBCHEM_EXACT_MASS>
648.49063128

> <PUBCHEM_MOLECULAR_FORMULA>
C46H64O2

> <PUBCHEM_MOLECULAR_WEIGHT>
649.0

> <PUBCHEM_SMILES>
CC1=C(C(=O)C2=CC=CC=C2C1=O)C/C=C(\C)/CC/C=C(\C)/CC/C=C(\C)/CC/C=C(\C)/CC/C=C(\C)/CC/C=C(\C)/CCC=C(C)C

> <PUBCHEM_CONNECTIVITY_SMILES>
CC1=C(C(=O)C2=CC=CC=C2C1=O)CC=C(C)CCC=C(C)CCC=C(C)CCC=C(C)CCC=C(C)CCC=C(C)CCC=C(C)C

> <PUBCHEM_CACTVS_TPSA>
34.1

> <PUBCHEM_MONOISOTOPIC_WEIGHT>
648.49063128

> <PUBCHEM_TOTAL_CHARGE>
0

> <PUBCHEM_HEAVY_ATOM_COUNT>
48

> <PUBCHEM_ATOM_DEF_STEREO_COUNT>
0

> <PUBCHEM_ATOM_UDEF_STEREO_COUNT>
0

> <PUBCHEM_BOND_DEF_STEREO_COUNT>
6

> <PUBCHEM_BOND_UDEF_STEREO_COUNT>
0

> <PUBCHEM_ISOTOPIC_ATOM_COUNT>
0

> <PUBCHEM_COMPONENT_COUNT>
1

> <PUBCHEM_CACTVS_TAUTO_COUNT>
-1

> <PUBCHEM_COORDINATE_TYPE>
1
5
255

> <PUBCHEM_BONDANNOTATIONS>
26  28  8
26  40  8
28  41  8
40  43  8
41  44  8
43  44  8

$$$$
