9817450
  -OEChem-04182609222D

 29 28  0     1  0  0  0  0  0999 V2000
    5.1929   -2.9074    0.0000 Zn  0  2  0  0  0  0  0  0  0  0  0  0
    2.5369    0.3231    0.0000 O   0  0  0  0  0  0  0  0  0  0  0  0
    5.5756   -1.9835    0.0000 O   0  5  0  0  0  0  0  0  0  0  0  0
    5.9000   -0.3525    0.0000 O   0  0  0  0  0  0  0  0  0  0  0  0
    4.2690    0.3231    0.0000 N   0  0  0  0  0  0  0  0  0  0  0  0
    2.6194   -2.9247    0.0000 N   0  0  0  0  0  0  0  0  0  0  0  0
    2.5369    3.3231    0.0000 N   0  0  0  0  0  0  0  0  0  0  0  0
    4.2690   -3.2900    0.0000 N   0  5  0  0  0  0  0  0  0  0  0  0
    4.2690   -0.6769    0.0000 C   0  0  1  0  0  0  0  0  0  0  0  0
    3.3451   -1.0596    0.0000 C   0  0  0  0  0  0  0  0  0  0  0  0
    2.9624   -1.9835    0.0000 C   0  0  0  0  0  0  0  0  0  0  0  0
    3.4030    1.8231    0.0000 C   0  0  0  0  0  0  0  0  0  0  0  0
    3.4030    0.8231    0.0000 C   0  0  0  0  0  0  0  0  0  0  0  0
    5.1929   -1.0596    0.0000 C   0  0  0  0  0  0  0  0  0  0  0  0
    2.5369    2.3231    0.0000 C   0  0  0  0  0  0  0  0  0  0  0  0
    3.3451   -2.9074    0.0000 C   0  0  0  0  0  0  0  0  0  0  0  0
    3.3278   -3.6331    0.0000 C   0  0  0  0  0  0  0  0  0  0  0  0
    4.7845   -0.3325    0.0000 H   0  0  0  0  0  0  0  0  0  0  0  0
    3.2642   -0.4449    0.0000 H   0  0  0  0  0  0  0  0  0  0  0  0
    2.7304   -0.9787    0.0000 H   0  0  0  0  0  0  0  0  0  0  0  0
    4.8059    0.6331    0.0000 H   0  0  0  0  0  0  0  0  0  0  0  0
    4.0135    1.7154    0.0000 H   0  0  0  0  0  0  0  0  0  0  0  0
    3.6150    2.4057    0.0000 H   0  0  0  0  0  0  0  0  0  0  0  0
    1.9264    2.4308    0.0000 H   0  0  0  0  0  0  0  0  0  0  0  0
    2.3249    1.7405    0.0000 H   0  0  0  0  0  0  0  0  0  0  0  0
    2.9067   -3.3458    0.0000 H   0  0  0  0  0  0  0  0  0  0  0  0
    2.0000    3.6331    0.0000 H   0  0  0  0  0  0  0  0  0  0  0  0
    3.0739    3.6331    0.0000 H   0  0  0  0  0  0  0  0  0  0  0  0
    3.1937   -4.2384    0.0000 H   0  0  0  0  0  0  0  0  0  0  0  0
  2 13  2  0  0  0  0
  3 14  1  0  0  0  0
  4 14  2  0  0  0  0
  9  5  1  6  0  0  0
  5 13  1  0  0  0  0
  5 21  1  0  0  0  0
  6 11  1  0  0  0  0
  6 17  2  0  0  0  0
  7 15  1  0  0  0  0
  7 27  1  0  0  0  0
  7 28  1  0  0  0  0
  8 16  1  0  0  0  0
  8 17  1  0  0  0  0
  9 10  1  0  0  0  0
  9 14  1  0  0  0  0
  9 18  1  0  0  0  0
 10 11  1  0  0  0  0
 10 19  1  0  0  0  0
 10 20  1  0  0  0  0
 11 16  2  0  0  0  0
 12 13  1  0  0  0  0
 12 15  1  0  0  0  0
 12 22  1  0  0  0  0
 12 23  1  0  0  0  0
 15 24  1  0  0  0  0
 15 25  1  0  0  0  0
 16 26  1  0  0  0  0
 17 29  1  0  0  0  0
M  CHG  3   1   2   3  -1   8  -1
M  END
> <PUBCHEM_COMPOUND_CID>
9817450

> <PUBCHEM_COMPOUND_CANONICALIZED>
1

> <PUBCHEM_CACTVS_COMPLEXITY>
254

> <PUBCHEM_CACTVS_HBOND_ACCEPTOR>
6

> <PUBCHEM_CACTVS_HBOND_DONOR>
2

> <PUBCHEM_CACTVS_ROTATABLE_BOND>
5

> <PUBCHEM_CACTVS_SUBSKEYS>
AAADccBzsAAAAAACAAAAAAAAAAAAAWAAAAAAAAAAAAAAAAABgAAAHgAQAAAACCjBlgQtmBbIEACoARX3fAAAgC0xEqABUIG4cAiCaBpA2SGUAAAMlgLQQCC8EQIAAAAAAAAAAAAAAAAAAAAAAAAAAAAAAA==

> <PUBCHEM_IUPAC_OPENEYE_NAME>
zinc (2S)-2-(3-aminopropanoylamino)-3-imidazol-1-id-4-yl-propanoate

> <PUBCHEM_IUPAC_CAS_NAME>
zinc (2S)-2-[(3-amino-1-oxopropyl)amino]-3-(4-imidazol-1-idyl)propanoate

> <PUBCHEM_IUPAC_NAME_MARKUP>
zinc (2<I>S</I>)-2-(3-aminopropanoylamino)-3-imidazol-1-id-4-ylpropanoate

> <PUBCHEM_IUPAC_NAME>
zinc (2S)-2-(3-aminopropanoylamino)-3-imidazol-1-id-4-ylpropanoate

> <PUBCHEM_IUPAC_SYSTEMATIC_NAME>
zinc (2S)-2-(3-azanylpropanoylamino)-3-imidazol-1-id-4-yl-propanoate

> <PUBCHEM_IUPAC_TRADITIONAL_NAME>
zinc (2S)-2-(3-aminopropanoylamino)-3-imidazol-1-id-4-yl-propionate

> <PUBCHEM_IUPAC_INCHI>
InChI=1S/C9H14N4O3.Zn/c10-2-1-8(14)13-7(9(15)16)3-6-4-11-5-12-6;/h4-5,7H,1-3,10H2,(H3,11,12,13,14,15,16);/q;+2/p-2/t7-;/m0./s1

> <PUBCHEM_IUPAC_INCHIKEY>
IGXZLYMCFZHNKW-FJXQXJEOSA-L

> <PUBCHEM_EXACT_MASS>
288.020082

> <PUBCHEM_MOLECULAR_FORMULA>
C9H12N4O3Zn

> <PUBCHEM_MOLECULAR_WEIGHT>
289.6

> <PUBCHEM_SMILES>
C1=C(N=C[N-]1)C[C@@H](C(=O)[O-])NC(=O)CCN.[Zn+2]

> <PUBCHEM_CONNECTIVITY_SMILES>
C1=C(N=C[N-]1)CC(C(=O)[O-])NC(=O)CCN.[Zn+2]

> <PUBCHEM_CACTVS_TPSA>
109

> <PUBCHEM_MONOISOTOPIC_WEIGHT>
288.020082

> <PUBCHEM_TOTAL_CHARGE>
0

> <PUBCHEM_HEAVY_ATOM_COUNT>
17

> <PUBCHEM_ATOM_DEF_STEREO_COUNT>
1

> <PUBCHEM_ATOM_UDEF_STEREO_COUNT>
0

> <PUBCHEM_BOND_DEF_STEREO_COUNT>
0

> <PUBCHEM_BOND_UDEF_STEREO_COUNT>
0

> <PUBCHEM_ISOTOPIC_ATOM_COUNT>
0

> <PUBCHEM_COMPONENT_COUNT>
2

> <PUBCHEM_CACTVS_TAUTO_COUNT>
-1

> <PUBCHEM_COORDINATE_TYPE>
1
5
255

> <PUBCHEM_BONDANNOTATIONS>
11  16  8
9  5  6
6  11  8
6  17  8
8  16  8
8  17  8

$$$$
